Circuit: * C:\WORKS\WS\Arduino\Simulations\Yoneda\D-33_v-4-1_1_Tr-inverter__v2.asc

Limiting rise time of source v1 to 0.001
Limiting fall time of source v1 to 0.001
.OP point found by inspection.

Date: Wed Jun 26 14:55:29 2013
Total elapsed time: 0.047 seconds.

tnom = 27
temp = 27
method = modified trap
totiter = 2416
traniter = 2416
tranpoints = 1129
accept = 1108
rejected = 21
matrix size = 6
fillins = 0
solver = Normal
Matrix Compiler1: 280 バイト object code size  0.2/0.1/[0.1]
Matrix Compiler2: 462 バイト object code size  0.1/0.1/[0.1]


