Circuit: * C:\WORKS\WS\Arduino\Simulations\D-33_v-3-0_Full-rectifier+Coil.asc

.OP point found by inspection.

Date: Mon Jun 24 12:08:46 2013
Total elapsed time: 0.053 seconds.

tnom = 27
temp = 27
method = modified trap
totiter = 2384
traniter = 2384
tranpoints = 1101
accept = 1092
rejected = 9
matrix size = 4
fillins = 0
solver = Normal
Matrix Compiler1:      13 opcodes  0.2/[0.1]/0.2
Matrix Compiler2: off  [0.1]/0.2/0.2


