Circuit: * C:\WORKS\WS\Arduino\Simulations\Yoneda\D-35_v-1.0_e-1_multi-vib.asc

Direct Newton iteration for .op point succeeded.
Heightened Def Con from 0.190911 to 0.190911
Heightened Def Con from 0.190911 +++++++to 0.190911
Heightened Def Con from 0.190911 ++++++++++++++++++++++++++++++++++to 0.190911
Heightened Def Con from 0.190911 +++++++++++++++++++++++++++++++++to 0.190911
Heightened Def Con from 0.190911 +++++++++++++++++++++++++++to 0.190911
Heightened Def Con from 0.231834 +to 0.231834
Heightened Def Con from 0.231834 +to 0.231834
Heightened Def Con from 0.231834 +to 0.231834
Heightened Def Con from 0.231834 +++++++++++++++++++++++++++++++++to 0.231834
Heightened Def Con from 0.445302 +to 0.445302
Heightened Def Con from 0.445302 ++++++++++++++++++++++++++++++++to 0.445302
Heightened Def Con from 0.698491 ++++++++++++++++++++++to 0.698491
Heightened Def Con from 0.919389 to 0.919389
Heightened Def Con from 0.919389 ++++++++++++++++++++++++++++++++to 0.919389
Heightened Def Con from 1.17256 to 1.17256
Heightened Def Con from 1.17256 to 1.17256
Heightened Def Con from 1.17256 +++++++++++++++++++++++++++++++++to 1.17256
Heightened Def Con from 1.39346 ++++++++++++++++++++++++++++++++to 1.39346
Heightened Def Con from 1.64662 ++++++++++++++++++++++to 1.64662
Heightened Def Con from 1.86752 ++++++++++++++++++++++++++++++++to 1.86752
Heightened Def Con from 2.12069 +++++++++++++++++++++++++++++++++to 2.12069
Heightened Def Con from 2.34159 +to 2.34159
Heightened Def Con from 2.34159 to 2.34159
Heightened Def Con from 2.34159 to 2.34159
Heightened Def Con from 2.34159 +++++++++++++++++++++++to 2.34159
Heightened Def Con from 2.59476 to 2.59476
Heightened Def Con from 2.59476 +++++++++++++++++++++++++++++++++to 2.59476
Heightened Def Con from 2.81565 to 2.81565
Heightened Def Con from 2.81565 +++++++++++++++++++++++to 2.81565
Heightened Def Con from 3.06882 +++++++++++++++++++++++++++++++++to 3.06882
Heightened Def Con from 3.28972 ++++++++++++++++++++++++++++++++to 3.28972
Heightened Def Con from 3.54289 +++++++++++++++++++++++++++++++++to 3.54289
Heightened Def Con from 3.76378 to 3.76378
Heightened Def Con from 3.76378 ++++++++++++++++++++++++++++++++to 3.76378
Heightened Def Con from 4.01695 +++++++++++++++++++++++++++++++++to 4.01695
Heightened Def Con from 4.23785 to 4.23785
Heightened Def Con from 4.23785 ++++++++++++++++++++++++++++++++to 4.23785
Heightened Def Con from 4.49102 to 4.49102
Heightened Def Con from 4.49102 +++++++++++++++++++++++++++++++++to 4.49102
Heightened Def Con from 4.71192 to 4.71192
Heightened Def Con from 4.71192 to 4.71192
Heightened Def Con from 4.71192 +++++++++++++++++++++++to 4.71192
Heightened Def Con from 4.96508 to 4.96508
Heightened Def Con from 4.96508 +++++++++++++++++++++++++++++++++to 4.96508

Date: Sat Jun 29 00:27:17 2013
Total elapsed time: 0.345 seconds.

tnom = 27
temp = 27
method = modified trap
totiter = 75234
traniter = 75227
tranpoints = 8634
accept = 3201
rejected = 6217
matrix size = 7
fillins = 2
solver = Normal
Matrix Compiler1: 464 ƒoƒCƒg object code size  0.2/0.2/[0.2]
Matrix Compiler2: off  [0.1]/0.3/0.6


