Circuit: * C:\WORKS\WS\Arduino\Simulations\Yoneda\D-35_v-1.0_e-1_multi-vib.asc

Direct Newton iteration for .op point succeeded.
Heightened Def Con from 2.34831 ++++++to 2.34831
Heightened Def Con from 2.34831 ++++to 2.34831
Heightened Def Con from 2.34831 ++++++++to 2.34831
Heightened Def Con from 2.34831 ++++to 2.34831
Heightened Def Con from 2.34831 +++++to 2.34831
Heightened Def Con from 2.34831 +++++++to 2.34831
Heightened Def Con from 2.34831 +++++++to 2.34831
Heightened Def Con from 2.34831 +++++++to 2.34831
Heightened Def Con from 2.34831 +++++++++to 2.34831
Heightened Def Con from 2.34831 ++++++++to 2.34831
Heightened Def Con from 2.34831 ++++++++++to 2.34831
Heightened Def Con from 2.34831 ++++++++++to 2.34831
Heightened Def Con from 2.34831 +++++++++++to 2.34831
Heightened Def Con from 2.34831 +++++++++++to 2.34831
Heightened Def Con from 2.34831 +++++++++++to 2.34831
Heightened Def Con from 2.34831 ++++++++++++to 2.34831
Heightened Def Con from 2.34831 ++++++++++++to 2.34831
Heightened Def Con from 2.34831 ++++++++++++to 2.34831
Heightened Def Con from 2.34831 ++++++++++++to 2.34831
Heightened Def Con from 2.34831 ++++++++++++to 2.34831
Heightened Def Con from 2.34831 ++++++++++++to 2.34831
Heightened Def Con from 2.34831 ++++++++++++to 2.34831
Heightened Def Con from 2.34831 +++++++++++++to 2.34831
Heightened Def Con from 2.34831 +++++++++++++to 2.34831
Heightened Def Con from 2.34831 +++++++++++++to 2.34831
Heightened Def Con from 2.34831 +++++++++++++to 2.34831
Heightened Def Con from 2.34831 +++++++++++++to 2.34831
Heightened Def Con from 2.34831 +++++++++++++to 2.34831
Heightened Def Con from 2.34831 +++++++++++++to 2.34831
Heightened Def Con from 2.34831 +++++++++++++to 2.34831
Heightened Def Con from 2.34831 +++++++++++++to 2.34831
Heightened Def Con from 2.34831 +++++++++++++to 2.34831
Heightened Def Con from 2.34831 +++++++++++++to 2.34831
Heightened Def Con from 2.34831 +++++++++++++to 2.34831
Heightened Def Con from 2.34831 +++++++++++++to 2.34831
Heightened Def Con from 2.34831 ++++++++++++++to 2.34831
Heightened Def Con from 2.34831 ++++++++++++++to 2.34831
Heightened Def Con from 2.34831 ++++++++++++++to 2.34831
Heightened Def Con from 2.34831 ++++++++++++++to 2.34831
Heightened Def Con from 2.34831 ++++++++++++++to 2.34831
Heightened Def Con from 2.34831 ++++++++++++++to 2.34831
Heightened Def Con from 2.34831 ++++++++++++++to 2.34831
Heightened Def Con from 2.34831 ++++++++++++++to 2.34831
Heightened Def Con from 2.34831 +++++++++++++++to 2.34831
Heightened Def Con from 2.34831 +++++++++++++++to 2.34831
Heightened Def Con from 2.34831 +++++++++++++++to 2.34831
Heightened Def Con from 2.34831 +++++++++++++++to 2.34831
Heightened Def Con from 2.34831 +++++++++++++++to 2.34831
Heightened Def Con from 2.34831 ++++++++++++++++to 2.34831
Heightened Def Con from 2.34831 ++++++++++++++++to 2.34831
Heightened Def Con from 2.34831 ++++++++++++++++to 2.34831
Heightened Def Con from 2.34831 ++++++++++++++++to 2.34831
Heightened Def Con from 2.34831 ++++++++++++++++to 2.34831
Heightened Def Con from 2.34831 ++++++++++++++++to 2.34831
Heightened Def Con from 2.34831 ++++++++++++++++to 2.34831
Heightened Def Con from 2.34831 ++++++++++++++++to 2.34831
Heightened Def Con from 2.34831 ++++++++++++++++to 2.34831
Heightened Def Con from 2.34831 ++++++++++++++++to 2.34831
Heightened Def Con from 2.34831 ++++++++++++++++to 2.34831
Heightened Def Con from 2.34831 ++++++++++++++++to 2.34831
Heightened Def Con from 2.34831 +++++++++++++++++to 2.34831
Heightened Def Con from 2.34831 +++++++++++++++++to 2.34831
Heightened Def Con from 2.34831 +++++++++++++++++to 2.34831
Heightened Def Con from 2.34831 +++++++++++++++++to 2.34831
Heightened Def Con from 2.34831 +++++++++++++++++to 2.34831
Heightened Def Con from 2.34831 +++++++++++++++++to 2.34831
Heightened Def Con from 2.34831 +++++++++++++++++to 2.34831
Heightened Def Con from 2.34831 +++++++++++++++++to 2.34831
Heightened Def Con from 2.34831 +++++++++++++++++to 2.34831
Heightened Def Con from 2.34831 +++++++++++++++++to 2.34831
Heightened Def Con from 2.34831 ++++++++++++++++++to 2.34831
Heightened Def Con from 2.34831 ++++++++++++++++++to 2.34831
Heightened Def Con from 2.34831 ++++++++++++++++++to 2.34831
Heightened Def Con from 2.34831 ++++++++++++++++++to 2.34831
Heightened Def Con from 2.34831 ++++++++++++++++++to 2.34831
Heightened Def Con from 2.34831 ++++++++++++++++++to 2.34831
Heightened Def Con from 2.34831 ++++++++++++++++++to 2.34831
Heightened Def Con from 2.34831 ++++++++++++++++++to 2.34831
Heightened Def Con from 2.34831 ++++++++++++++++++to 2.34831
Heightened Def Con from 2.34831 ++++++++++++++++++to 2.34831
Heightened Def Con from 2.34831 ++++++++++++++++++to 2.34831
Heightened Def Con from 2.34831 ++++++++++++++++++to 2.34831
Heightened Def Con from 2.34831 ++++++++++++++++++to 2.34831
Heightened Def Con from 2.34831 ++++++++++++++++++to 2.34831
Heightened Def Con from 2.34831 ++++++++++++++++++to 2.34831
Heightened Def Con from 2.34831 ++++++++++++++++++to 2.34831
Heightened Def Con from 2.34831 ++++++++++++++++++to 2.34831
Heightened Def Con from 2.34831 +++++++++++++++++++to 2.34831
Heightened Def Con from 2.34831 +++++++++++++++++++to 2.34831
Heightened Def Con from 2.34831 +++++++++++++++++++to 2.34831
Heightened Def Con from 2.34831 +++++++++++++++++++to 2.34831
Heightened Def Con from 2.34831 +++++++++++++++++++to 2.34831
Heightened Def Con from 2.34831 +++++++++++++++++++to 2.34831
Heightened Def Con from 2.34831 +++++++++++++++++++to 2.34831
Heightened Def Con from 2.34831 +++++++++++++++++++to 2.34831
Heightened Def Con from 2.34831 +++++++++++++++++++to 2.34831
Heightened Def Con from 2.34831 +++++++++++++++++++to 2.34831
Heightened Def Con from 2.34831 +++++++++++++++++++to 2.34831
Heightened Def Con from 2.34831 ++++++++++++++++++++to 2.34831
Heightened Def Con from 2.34831 ++++++++++++++++++++to 2.34831
Heightened Def Con from 2.34831 ++++++++++++++++++++to 2.34831
Heightened Def Con from 2.34831 ++++++++++++++++++++to 2.34831
Heightened Def Con from 2.34831 ++++++++++++++++++++to 2.34831
Heightened Def Con from 2.34831 ++++++++++++++++++++to 2.34831
Heightened Def Con from 2.34831 ++++++++++++++++++++to 2.34831
Heightened Def Con from 2.34831 ++++++++++++++++++++to 2.34831
Heightened Def Con from 2.34831 ++++++++++++++++++++to 2.34831
Heightened Def Con from 2.34831 ++++++++++++++++++++to 2.34831
Heightened Def Con from 2.34831 ++++++++++++++++++++to 2.34831
Heightened Def Con from 2.34831 ++++++++++++++++++++to 2.34831
Heightened Def Con from 2.34831 ++++++++++++++++++++to 2.34831
Heightened Def Con from 2.34831 ++++++++++++++++++++to 2.34831
Heightened Def Con from 2.34831 ++++++++++++++++++++to 2.34831
Heightened Def Con from 2.34831 ++++++++++++++++++++to 2.34831
Heightened Def Con from 2.34831 ++++++++++++++++++++to 2.34831
Heightened Def Con from 2.34831 ++++++++++++++++++++to 2.34831
Heightened Def Con from 2.34831 ++++++++++++++++++++to 2.34831
Heightened Def Con from 2.34831 +++++++++++++++++++++to 2.34831
Heightened Def Con from 2.34831 +++++++++++++++++++++to 2.34831
Heightened Def Con from 2.34831 +++++++++++++++++++++to 2.34831
Heightened Def Con from 2.34831 +++++++++++++++++++++to 2.34831
Heightened Def Con from 2.34831 +++++++++++++++++++++to 2.34831
Heightened Def Con from 2.34831 +++++++++++++++++++++to 2.34831
Heightened Def Con from 2.34831 +++++++++++++++++++++to 2.34831
Heightened Def Con from 2.34831 +++++++++++++++++++++to 2.34831
Heightened Def Con from 2.34831 +++++++++++++++++++++to 2.34831
Heightened Def Con from 2.34831 +++++++++++++++++++++to 2.34831
Heightened Def Con from 2.34831 +++++++++++++++++++++to 2.34831
Heightened Def Con from 2.34831 +++++++++++++++++++++to 2.34831
Heightened Def Con from 2.34831 ++++++++++++++++++++++to 2.34831
Heightened Def Con from 2.34831 ++++++++++++++++++++++to 2.34831
Heightened Def Con from 2.34831 ++++++++++++++++++++++to 2.34831
Heightened Def Con from 2.34831 ++++++++++++++++++++++to 2.34831
Heightened Def Con from 2.34831 ++++++++++++++++++++++to 2.34831
Heightened Def Con from 2.34831 ++++++++++++++++++++++to 2.34831
Heightened Def Con from 2.34831 ++++++++++++++++++++++to 2.34831
Heightened Def Con from 2.34831 ++++++++++++++++++++++to 2.34831
Heightened Def Con from 2.34831 ++++++++++++++++++++++to 2.34831
Heightened Def Con from 2.34831 ++++++++++++++++++++++to 2.34831
Heightened Def Con from 2.34831 ++++++++++++++++++++++to 2.34831
Heightened Def Con from 2.34831 ++++++++++++++++++++++to 2.34831
Heightened Def Con from 2.34831 +++++++++++++++++++++++to 2.34831
Heightened Def Con from 2.34831 +++++++++++++++++++++++to 2.34831
Heightened Def Con from 2.34831 +++++++++++++++++++++++to 2.34831
Heightened Def Con from 2.34831 +++++++++++++++++++++++to 2.34831
Heightened Def Con from 2.34831 +++++++++++++++++++++++to 2.34831
Heightened Def Con from 2.34831 +++++++++++++++++++++++to 2.34831
Heightened Def Con from 2.34831 +++++++++++++++++++++++to 2.34831
Heightened Def Con from 2.34831 +++++++++++++++++++++++to 2.34831
Heightened Def Con from 2.34831 +++++++++++++++++++++++to 2.34831
Heightened Def Con from 2.34831 +++++++++++++++++++++++to 2.34831
Heightened Def Con from 2.34831 +++++++++++++++++++++++to 2.34831
Heightened Def Con from 2.34831 +++++++++++++++++++++++to 2.34831
Heightened Def Con from 2.34831 +++++++++++++++++++++++to 2.34831
Heightened Def Con from 2.34831 +++++++++++++++++++++++to 2.34831
Heightened Def Con from 2.34831 +++++++++++++++++++++++to 2.34831
Heightened Def Con from 2.34831 +++++++++++++++++++++++to 2.34831
Heightened Def Con from 2.34831 +++++++++++++++++++++++to 2.34831
Heightened Def Con from 2.34831 +++++++++++++++++++++++to 2.34831
Heightened Def Con from 2.34831 +++++++++++++++++++++++to 2.34831
Heightened Def Con from 2.34831 +++++++++++++++++++++++to 2.34831
Heightened Def Con from 2.34831 +++++++++++++++++++++++to 2.34831
Heightened Def Con from 2.34831 +++++++++++++++++++++++to 2.34831
Heightened Def Con from 2.34831 +++++++++++++++++++++++to 2.34831
Heightened Def Con from 2.34831 +++++++++++++++++++++++to 2.34831
Heightened Def Con from 2.34831 +++++++++++++++++++++++to 2.34831
Heightened Def Con from 2.34831 ++++++++++++++++++++++++to 2.34831
Heightened Def Con from 2.34831 ++++++++++++++++++++++++to 2.34831
Heightened Def Con from 2.34831 ++++++++++++++++++++++++to 2.34831
Heightened Def Con from 2.34831 ++++++++++++++++++++++++to 2.34831
Heightened Def Con from 2.34831 ++++++++++++++++++++++++to 2.34831
Heightened Def Con from 2.34831 ++++++++++++++++++++++++to 2.34831
Heightened Def Con from 2.34831 ++++++++++++++++++++++++to 2.34831
Heightened Def Con from 2.34831 ++++++++++++++++++++++++to 2.34831
Heightened Def Con from 2.34831 ++++++++++++++++++++++++to 2.34831
Heightened Def Con from 2.34831 ++++++++++++++++++++++++to 2.34831
Heightened Def Con from 2.34831 ++++++++++++++++++++++++to 2.34831
Heightened Def Con from 2.34831 ++++++++++++++++++++++++to 2.34831
Heightened Def Con from 2.34831 ++++++++++++++++++++++++to 2.34831
Heightened Def Con from 2.34831 ++++++++++++++++++++++++to 2.34831
Heightened Def Con from 2.34831 ++++++++++++++++++++++++to 2.34831
Heightened Def Con from 2.34831 ++++++++++++++++++++++++to 2.34831
Heightened Def Con from 2.34831 ++++++++++++++++++++++++to 2.34831
Heightened Def Con from 2.34831 ++++++++++++++++++++++++to 2.34831
Heightened Def Con from 2.34831 ++++++++++++++++++++++++to 2.34831
Heightened Def Con from 2.34831 ++++++++++++++++++++++++to 2.34831
Heightened Def Con from 2.34831 ++++++++++++++++++++++++to 2.34831
Heightened Def Con from 2.34834 ++++++++++++++++++++++++++++to 2.34834
Heightened Def Con from 2.34863 to 2.34863
Heightened Def Con from 2.34863 +++++++++++++++++++++++++++++++++to 2.34863
Heightened Def Con from 2.34897 to 2.34897
Heightened Def Con from 2.34897 to 2.34897
Heightened Def Con from 2.34897 to 2.34897
Heightened Def Con from 2.34897 ++++++++++++++++++++++++to 2.34897
Heightened Def Con from 2.34936 +++++++++++++++++++++++++++++++++to 2.34936
Heightened Def Con from 2.3497 to 2.3497
Heightened Def Con from 2.3497 to 2.3497
Heightened Def Con from 2.3497 to 2.3497
Heightened Def Con from 2.3497 ++++++++++++++++++++++++++++++++to 2.3497
Heightened Def Con from 2.3501 +++++++++++++++++++++++++++++++++to 2.3501
Heightened Def Con from 2.35044 to 2.35044
Heightened Def Con from 2.35044 ++++++++++++++++++++++++++++++++to 2.35044
Heightened Def Con from 2.35083 to 2.35083
Heightened Def Con from 2.35083 +++++++++++++++++++++++++++++++++to 2.35083
Heightened Def Con from 2.35117 ++++++++++++++++++++++++++++++++to 2.35117
Heightened Def Con from 2.35156 +++++++++++++++++++++++++++++++++to 2.35156
Heightened Def Con from 2.3519 +to 2.3519
Heightened Def Con from 2.3519 ++++++++++++++++++++++++++++++++to 2.3519
Heightened Def Con from 2.3523 to 2.3523
Heightened Def Con from 2.3523 +++++++++++++++++++++++++++++++++to 2.3523
Heightened Def Con from 2.35264 to 2.35264
Heightened Def Con from 2.35264 ++++++++++++++++++++++++to 2.35264
Heightened Def Con from 2.35303 to 2.35303
Heightened Def Con from 2.35303 to 2.35303
Heightened Def Con from 2.35303 +++++++++++++++++++++++++++++++++to 2.35303
Heightened Def Con from 2.35337 ++++++++++++++++++++++++++++++++to 2.35337
Heightened Def Con from 2.35377 to 2.35377
Heightened Def Con from 2.35377 to 2.35377
Heightened Def Con from 2.35377 +++++++++++++++++++++++++++++++++to 2.35377
Heightened Def Con from 2.3541 ++++++++++++++++++++++++++++++++to 2.3541
Heightened Def Con from 2.3545 to 2.3545
Heightened Def Con from 2.3545 +++++++++++++++++++++++++++++++++to 2.3545
Heightened Def Con from 2.35484 to 2.35484
Heightened Def Con from 2.35484 ++++++++++++++++++++++++++++++++to 2.35484
Heightened Def Con from 2.35523 +++++++++++++++++++++++++++++++++to 2.35523
Heightened Def Con from 2.35557 ++++++++++++++++++++++++to 2.35557
Heightened Def Con from 2.35597 to 2.35597
Heightened Def Con from 2.35597 to 2.35597
Heightened Def Con from 2.35597 to 2.35597
Heightened Def Con from 2.35597 +++++++++++++++++++++++++++++++++to 2.35597
Heightened Def Con from 2.35631 to 2.35631
Heightened Def Con from 2.35631 +to 2.35631
Heightened Def Con from 2.35631 ++++++++++++++++++++++++++++++++to 2.35631
Heightened Def Con from 2.3567 +++++++++++++++++++++++++++++++++to 2.3567
Heightened Def Con from 2.35704 to 2.35704
Heightened Def Con from 2.35704 +to 2.35704
Heightened Def Con from 2.35704 ++++++++++++++++++++++++to 2.35704
Heightened Def Con from 2.35743 to 2.35743
Heightened Def Con from 2.35743 ++to 2.35743
Heightened Def Con from 2.35743 to 2.35743
Heightened Def Con from 2.35743 +to 2.35743
Heightened Def Con from 2.35743 +++++++++++++++++++++++++++++++++to 2.35743
Heightened Def Con from 2.35777 ++++++++++++++++++++++++++++++++to 2.35777
Heightened Def Con from 2.35817 +++++++++++++++++++++++++++++++++to 2.35817
Heightened Def Con from 2.35851 to 2.35851
Heightened Def Con from 2.35851 ++++++++++++++++++++++++to 2.35851
Heightened Def Con from 2.3589 +++++++++++++++++++++++++++++++++to 2.3589
Heightened Def Con from 2.35924 to 2.35924
Heightened Def Con from 2.35924 +to 2.35924
Heightened Def Con from 2.35924 to 2.35924
Heightened Def Con from 2.35924 ++++++++++++++++++++++++to 2.35924
Heightened Def Con from 2.35963 +++++++++++++++++++++++++++++++++to 2.35963
Heightened Def Con from 2.35997 ++++++++++++++++++++++++++++++++to 2.35997
Heightened Def Con from 2.36037 +to 2.36037
Heightened Def Con from 2.36037 +++++++++++++++++++++++++++++++++to 2.36037
Heightened Def Con from 2.36071 to 2.36071
Heightened Def Con from 2.36071 +to 2.36071
Heightened Def Con from 2.36071 to 2.36071
Heightened Def Con from 2.36071 to 2.36071
Heightened Def Con from 2.36071 to 2.36071
Heightened Def Con from 2.36071 to 2.36071
Heightened Def Con from 2.36071 ++++++++++++++++++++++++++++++++to 2.36071
Heightened Def Con from 2.3611 ++to 2.3611
Heightened Def Con from 2.3611 +++++++++++++++++++++++++++++++++to 2.3611
Heightened Def Con from 2.36144 ++++++++++++++++++++++++++++++++to 2.36144
Heightened Def Con from 2.36183 +++++++++++++++++++++++++++++++++to 2.36183
Heightened Def Con from 2.36217 ++++++++++++++++++++++++to 2.36217
Heightened Def Con from 2.36257 +++++++++++++++++++++++++++++++++to 2.36257
Heightened Def Con from 2.36291 ++++++++++++++++++++++++++++++++to 2.36291
Heightened Def Con from 2.3633 to 2.3633
Heightened Def Con from 2.3633 +++++++++++++++++++++++++++++++++to 2.3633
Heightened Def Con from 2.36364 ++to 2.36364
Heightened Def Con from 2.36364 to 2.36364
Heightened Def Con from 2.36364 ++++++++++++++++++++++++to 2.36364
Heightened Def Con from 2.36403 to 2.36403
Heightened Def Con from 2.36403 +++++++++++++++++++++++++++++++++to 2.36403
Heightened Def Con from 2.36437 ++++++++++++++++++++++++++++++++to 2.36437
Heightened Def Con from 2.36477 to 2.36477
Heightened Def Con from 2.36477 +to 2.36477
Heightened Def Con from 2.36477 +++++++++++++++++++++++++++++++++to 2.36477
Heightened Def Con from 2.36511 to 2.36511
Heightened Def Con from 2.36511 to 2.36511
Heightened Def Con from 2.36511 ++++++++++++++++++++++++++++++++to 2.36511
Heightened Def Con from 2.3655 to 2.3655
Heightened Def Con from 2.3655 to 2.3655
Heightened Def Con from 2.3655 to 2.3655
Heightened Def Con from 2.3655 +++++++++++++++++++++++++++++++++to 2.3655
Heightened Def Con from 2.36584 ++++++++++++++++++++++++++++++++to 2.36584
Heightened Def Con from 2.36623 ++to 2.36623
Heightened Def Con from 2.36623 +to 2.36623
Heightened Def Con from 2.36623 +++++++++++++++++++++++++++++++++to 2.36623
Heightened Def Con from 2.36657 +to 2.36657
Heightened Def Con from 2.36657 ++++++++++++++++++++++++to 2.36657
Heightened Def Con from 2.36697 +to 2.36697
Heightened Def Con from 2.36697 +++++++++++++++++++++++++++++++++to 2.36697
Heightened Def Con from 2.36731 to 2.36731
Heightened Def Con from 2.36731 to 2.36731
Heightened Def Con from 2.36731 +to 2.36731
Heightened Def Con from 2.36731 to 2.36731
Heightened Def Con from 2.36731 ++++++++++++++++++++++++++++++++to 2.36731
Heightened Def Con from 2.3677 +++++++++++++++++++++++++++++++++to 2.3677
Heightened Def Con from 2.36804 to 2.36804
Heightened Def Con from 2.36804 to 2.36804
Heightened Def Con from 2.36804 +to 2.36804
Heightened Def Con from 2.36804 ++++++++++++++++++++++++to 2.36804
Heightened Def Con from 2.36844 +++++++++++++++++++++++++++++++++to 2.36844
Heightened Def Con from 2.36877 +++to 2.36877
Heightened Def Con from 2.36877 +to 2.36877
Heightened Def Con from 2.36877 ++++++++++++++++++++++++++++++++to 2.36877
Heightened Def Con from 2.36917 to 2.36917
Heightened Def Con from 2.36917 +++++++++++++++++++++++++++++++++to 2.36917
Heightened Def Con from 2.36951 to 2.36951
Heightened Def Con from 2.36951 to 2.36951
Heightened Def Con from 2.36951 +to 2.36951
Heightened Def Con from 2.36951 ++++++++++++++++++++++++to 2.36951
Heightened Def Con from 2.3699 +to 2.3699
Heightened Def Con from 2.3699 +++++++++++++++++++++++++++++++++to 2.3699
Heightened Def Con from 2.37024 ++++++++++++++++++++++++++++++++to 2.37024
Heightened Def Con from 2.37064 +++++++++++++++++++++++++++++++++to 2.37064
Heightened Def Con from 2.37097 ++++++++++++++++++++++++++++++++to 2.37097
Heightened Def Con from 2.37137 to 2.37137
Heightened Def Con from 2.37137 +++++++++++++++++++++++++++++++++to 2.37137
Heightened Def Con from 2.37171 to 2.37171
Heightened Def Con from 2.37171 to 2.37171
Heightened Def Con from 2.37171 to 2.37171
Heightened Def Con from 2.37171 ++++++++++++++++++++++++++++++++to 2.37171
Heightened Def Con from 2.3721 +to 2.3721
Heightened Def Con from 2.3721 +++++++++++++++++++++++++++++++++to 2.3721
Heightened Def Con from 2.37244 ++to 2.37244
Heightened Def Con from 2.37244 ++++++++++++++++++++++++to 2.37244
Heightened Def Con from 2.37284 ++to 2.37284
Heightened Def Con from 2.37284 to 2.37284
Heightened Def Con from 2.37284 to 2.37284
Heightened Def Con from 2.37284 +++++++++++++++++++++++++++++++++to 2.37284
Heightened Def Con from 2.37318 ++++++++++++++++++++++++++++++++to 2.37318
Heightened Def Con from 2.37357 +++++++++++++++++++++++++++++++++to 2.37357
Heightened Def Con from 2.37391 ++++++++++++++++++++++++++++++++to 2.37391
Heightened Def Con from 2.3743 +++++++++++++++++++++++++++++++++to 2.3743
Heightened Def Con from 2.37464 to 2.37464
Heightened Def Con from 2.37464 to 2.37464
Heightened Def Con from 2.37464 +to 2.37464
Heightened Def Con from 2.37464 ++++++++++++++++++++++++++++++++to 2.37464
Heightened Def Con from 2.37504 to 2.37504
Heightened Def Con from 2.37504 +++++++++++++++++++++++++++++++++to 2.37504
Heightened Def Con from 2.37538 to 2.37538
Heightened Def Con from 2.37538 to 2.37538
Heightened Def Con from 2.37538 ++++++++++++++++++++++++++++++++to 2.37538
Heightened Def Con from 2.37577 +to 2.37577
Heightened Def Con from 2.37577 +++++++++++++++++++++++++++++++++to 2.37577
Heightened Def Con from 2.37611 ++++++++++++++++++++++++to 2.37611
Heightened Def Con from 2.3765 +++++++++++++++++++++++++++++++++to 2.3765
Heightened Def Con from 2.37684 ++to 2.37684
Heightened Def Con from 2.37684 to 2.37684
Heightened Def Con from 2.37684 ++++++++++++++++++++++++++++++++to 2.37684
Heightened Def Con from 2.37724 to 2.37724
Heightened Def Con from 2.37724 to 2.37724
Heightened Def Con from 2.37724 +++++++++++++++++++++++++++++++++to 2.37724
Heightened Def Con from 2.37758 +to 2.37758
Heightened Def Con from 2.37758 ++++++++++++++++++++++++to 2.37758
Heightened Def Con from 2.37797 to 2.37797
Heightened Def Con from 2.37797 +++++++++++++++++++++++++++++++++to 2.37797
Heightened Def Con from 2.37831 to 2.37831
Heightened Def Con from 2.37831 ++++++++++++++++++++++++++++++++to 2.37831
Heightened Def Con from 2.3787 to 2.3787
Heightened Def Con from 2.3787 +++++++++++++++++++++++++++++++++to 2.3787
Heightened Def Con from 2.37904 ++++++++++++++++++++++++++++++++to 2.37904
Heightened Def Con from 2.37944 to 2.37944
Heightened Def Con from 2.37944 +++++++++++++++++++++++++++++++++to 2.37944
Heightened Def Con from 2.37978 ++++++++++++++++++++++++to 2.37978
Heightened Def Con from 2.38017 to 2.38017
Heightened Def Con from 2.38017 +++++++++++++++++++++++++++++++++to 2.38017
Heightened Def Con from 2.38051 to 2.38051
Heightened Def Con from 2.38051 to 2.38051
Heightened Def Con from 2.38051 to 2.38051
Heightened Def Con from 2.38051 to 2.38051
Heightened Def Con from 2.38051 ++++++++++++++++++++++++++++++++to 2.38051
Heightened Def Con from 2.3809 +++++++++++++++++++++++++++++++++to 2.3809
Heightened Def Con from 2.38124 +to 2.38124
Heightened Def Con from 2.38124 ++++++++++++++++++++++++to 2.38124
Heightened Def Con from 2.38164 +to 2.38164
Heightened Def Con from 2.38164 +++++++++++++++++++++++++++++++++to 2.38164
Heightened Def Con from 2.38198 +to 2.38198
Heightened Def Con from 2.38198 to 2.38198
Heightened Def Con from 2.38198 ++++++++++++++++++++++++to 2.38198
Heightened Def Con from 2.38237 to 2.38237
Heightened Def Con from 2.38237 ++to 2.38237
Heightened Def Con from 2.38237 +++++++++++++++++++++++++++++++++to 2.38237
Heightened Def Con from 2.38271 +to 2.38271
Heightened Def Con from 2.38271 to 2.38271
Heightened Def Con from 2.38271 ++++++++++++++++++++++++to 2.38271
Heightened Def Con from 2.3831 to 2.3831
Heightened Def Con from 2.3831 +++++++++++++++++++++++++++++++++to 2.3831
Heightened Def Con from 2.38344 +to 2.38344
Heightened Def Con from 2.38344 ++++++++++++++++++++++++++++++++to 2.38344
Heightened Def Con from 2.38384 ++to 2.38384
Heightened Def Con from 2.38384 to 2.38384
Heightened Def Con from 2.38384 to 2.38384
Heightened Def Con from 2.38384 +++++++++++++++++++++++++++++++++to 2.38384
Heightened Def Con from 2.38418 ++++++++++++++++++++++++to 2.38418
Heightened Def Con from 2.38457 +to 2.38457
Heightened Def Con from 2.38457 +++++++++++++++++++++++++++++++++to 2.38457
Heightened Def Con from 2.38491 ++++++++++++++++++++++++++++++++to 2.38491
Heightened Def Con from 2.38531 +++++++++++++++++++++++++++++++++to 2.38531
Heightened Def Con from 2.38564 to 2.38564
Heightened Def Con from 2.38564 to 2.38564
Heightened Def Con from 2.38564 to 2.38564
Heightened Def Con from 2.38564 to 2.38564
Heightened Def Con from 2.38564 ++++++++++++++++++++++++++++++++to 2.38564
Heightened Def Con from 2.38604 +to 2.38604
Heightened Def Con from 2.38604 +++++++++++++++++++++++++++++++++to 2.38604
Heightened Def Con from 2.38638 ++++++++++++++++++++++++to 2.38638
Heightened Def Con from 2.38677 +to 2.38677
Heightened Def Con from 2.38677 to 2.38677
Heightened Def Con from 2.38677 +++++++++++++++++++++++++++++++++to 2.38677
Heightened Def Con from 2.38711 ++++++++++++++++++++++++to 2.38711
Heightened Def Con from 2.38751 to 2.38751
Heightened Def Con from 2.38751 +++++++++++++++++++++++++++++++++to 2.38751
Heightened Def Con from 2.38785 to 2.38785
Heightened Def Con from 2.38785 to 2.38785
Heightened Def Con from 2.38785 to 2.38785
Heightened Def Con from 2.38785 ++++++++++++++++++++++++++++++++to 2.38785
Heightened Def Con from 2.38824 to 2.38824
Heightened Def Con from 2.38824 to 2.38824
Heightened Def Con from 2.38824 +++++++++++++++++++++++++++++++++to 2.38824
Heightened Def Con from 2.38858 to 2.38858
Heightened Def Con from 2.38858 to 2.38858
Heightened Def Con from 2.38858 ++++++++++++++++++++++++++++++++to 2.38858
Heightened Def Con from 2.38897 to 2.38897
Heightened Def Con from 2.38897 +to 2.38897
Heightened Def Con from 2.38897 +++++++++++++++++++++++++++++++++to 2.38897
Heightened Def Con from 2.38931 to 2.38931
Heightened Def Con from 2.38931 to 2.38931
Heightened Def Con from 2.38931 +to 2.38931
Heightened Def Con from 2.38931 to 2.38931
Heightened Def Con from 2.38931 to 2.38931
Heightened Def Con from 2.38931 ++++++++++++++++++++++++++++++++to 2.38931
Heightened Def Con from 2.38971 to 2.38971
Heightened Def Con from 2.38971 +++++++++++++++++++++++++++++++++to 2.38971
Heightened Def Con from 2.39005 ++++++++++++++++++++++++to 2.39005
Heightened Def Con from 2.39044 to 2.39044
Heightened Def Con from 2.39044 to 2.39044
Heightened Def Con from 2.39044 +++++++++++++++++++++++++++++++++to 2.39044
Heightened Def Con from 2.39078 to 2.39078
Heightened Def Con from 2.39078 ++++++++++++++++++++++++to 2.39078
Heightened Def Con from 2.39117 +++++++++++++++++++++++++++++++++to 2.39117
Heightened Def Con from 2.39151 to 2.39151
Heightened Def Con from 2.39151 to 2.39151
Heightened Def Con from 2.39151 to 2.39151
Heightened Def Con from 2.39151 ++++++++++++++++++++++++++++++++to 2.39151
Heightened Def Con from 2.39191 to 2.39191
Heightened Def Con from 2.39191 to 2.39191
Heightened Def Con from 2.39191 +++++++++++++++++++++++++++++++++to 2.39191
Heightened Def Con from 2.39225 to 2.39225
Heightened Def Con from 2.39225 ++++++++++++++++++++++++to 2.39225
Heightened Def Con from 2.39264 to 2.39264
Heightened Def Con from 2.39264 +++++++++++++++++++++++++++++++++to 2.39264
Heightened Def Con from 2.39298 to 2.39298
Heightened Def Con from 2.39298 to 2.39298
Heightened Def Con from 2.39298 ++++++++++++++++++++++++++++++++to 2.39298
Heightened Def Con from 2.39337 +++++++++++++++++++++++++++++++++to 2.39337
Heightened Def Con from 2.39371 to 2.39371
Heightened Def Con from 2.39371 to 2.39371
Heightened Def Con from 2.39371 +to 2.39371
Heightened Def Con from 2.39371 +to 2.39371
Heightened Def Con from 2.39371 ++++++++++++++++++++++++to 2.39371
Heightened Def Con from 2.39411 +++++++++++++++++++++++++++++++++to 2.39411
Heightened Def Con from 2.39445 to 2.39445
Heightened Def Con from 2.39445 to 2.39445
Heightened Def Con from 2.39445 to 2.39445
Heightened Def Con from 2.39445 to 2.39445
Heightened Def Con from 2.39445 +to 2.39445
Heightened Def Con from 2.39445 ++++++++++++++++++++++++to 2.39445
Heightened Def Con from 2.39484 +to 2.39484
Heightened Def Con from 2.39484 +to 2.39484
Heightened Def Con from 2.39484 ++to 2.39484
Heightened Def Con from 2.39484 +++++++++++++++++++++++++++++++++to 2.39484
Heightened Def Con from 2.39518 +to 2.39518
Heightened Def Con from 2.39518 ++++++++++++++++++++++++to 2.39518
Heightened Def Con from 2.39557 to 2.39557
Heightened Def Con from 2.39557 +++++++++++++++++++++++++++++++++to 2.39557
Heightened Def Con from 2.39591 +to 2.39591
Heightened Def Con from 2.39591 ++++++++++++++++++++++++to 2.39591
Heightened Def Con from 2.39631 +++++++++++++++++++++++++++++++++to 2.39631
Heightened Def Con from 2.39665 to 2.39665
Heightened Def Con from 2.39665 ++++++++++++++++++++++++++++++++to 2.39665
Heightened Def Con from 2.39704 to 2.39704
Heightened Def Con from 2.39704 +to 2.39704
Heightened Def Con from 2.39704 +++++++++++++++++++++++++++++++++to 2.39704
Heightened Def Con from 2.39738 +to 2.39738
Heightened Def Con from 2.39738 ++++++++++++++++++++++++to 2.39738
Heightened Def Con from 2.39777 to 2.39777
Heightened Def Con from 2.39777 +++++++++++++++++++++++++++++++++to 2.39777
Heightened Def Con from 2.39811 to 2.39811
Heightened Def Con from 2.39811 ++++++++++++++++++++++++++++++++to 2.39811
Heightened Def Con from 2.39851 to 2.39851
Heightened Def Con from 2.39851 +++++++++++++++++++++++++++++++++to 2.39851
Heightened Def Con from 2.39885 ++++++++++++++++++++++++to 2.39885
Heightened Def Con from 2.39924 +++++++++++++++++++++++++++++++++to 2.39924
Heightened Def Con from 2.39958 ++++++++++++++++++++++++++++++++to 2.39958
Heightened Def Con from 2.39997 to 2.39997
Heightened Def Con from 2.39997 +++++++++++++++++++++++++++++++++to 2.39997
Heightened Def Con from 2.40031 ++++++++++++++++++++++++to 2.40031
Heightened Def Con from 2.40071 +++++++++++++++++++++++++++++++++to 2.40071
Heightened Def Con from 2.40105 to 2.40105
Heightened Def Con from 2.40105 to 2.40105
Heightened Def Con from 2.40105 to 2.40105
Heightened Def Con from 2.40105 to 2.40105
Heightened Def Con from 2.40105 ++++++++++++++++++++++++to 2.40105
Heightened Def Con from 2.40144 to 2.40144
Heightened Def Con from 2.40144 to 2.40144
Heightened Def Con from 2.40144 to 2.40144
Heightened Def Con from 2.40144 +++++++++++++++++++++++++++++++++to 2.40144
Heightened Def Con from 2.40178 ++++++++++++++++++++++++to 2.40178
Heightened Def Con from 2.40218 to 2.40218
Heightened Def Con from 2.40218 to 2.40218
Heightened Def Con from 2.40218 +++++++++++++++++++++++++++++++++to 2.40218
Heightened Def Con from 2.40251 +to 2.40251
Heightened Def Con from 2.40251 ++++++++++++++++++++++++++++++++to 2.40251
Heightened Def Con from 2.40291 +to 2.40291
Heightened Def Con from 2.40291 to 2.40291
Heightened Def Con from 2.40291 +++++++++++++++++++++++++++++++++to 2.40291
Heightened Def Con from 2.40325 +to 2.40325
Heightened Def Con from 2.40325 +to 2.40325
Heightened Def Con from 2.40325 ++++++++++++++++++++++++to 2.40325
Heightened Def Con from 2.40364 +++++++++++++++++++++++++++++++++to 2.40364
Heightened Def Con from 2.40398 ++to 2.40398
Heightened Def Con from 2.40398 to 2.40398
Heightened Def Con from 2.40398 ++++++++++++++++++++++++++++++++to 2.40398
Heightened Def Con from 2.40438 to 2.40438
Heightened Def Con from 2.40438 to 2.40438
Heightened Def Con from 2.40438 to 2.40438
Heightened Def Con from 2.40438 +++++++++++++++++++++++++++++++++to 2.40438
Heightened Def Con from 2.40472 ++++++++++++++++++++++++++++++++to 2.40472
Heightened Def Con from 2.40511 +++++++++++++++++++++++++++++++++to 2.40511
Heightened Def Con from 2.40545 ++++++++++++++++++++++++++++++++to 2.40545
Heightened Def Con from 2.40584 ++to 2.40584
Heightened Def Con from 2.40584 to 2.40584
Heightened Def Con from 2.40584 to 2.40584
Heightened Def Con from 2.40584 +++++++++++++++++++++++++++++++++to 2.40584
Heightened Def Con from 2.40618 +to 2.40618
Heightened Def Con from 2.40618 ++++++++++++++++++++++++++++++++to 2.40618
Heightened Def Con from 2.40658 ++to 2.40658
Heightened Def Con from 2.40658 +++++++++++++++++++++++++++++++++to 2.40658
Heightened Def Con from 2.40692 to 2.40692
Heightened Def Con from 2.40692 ++++++++++++++++++++++++to 2.40692
Heightened Def Con from 2.40731 to 2.40731
Heightened Def Con from 2.40731 ++to 2.40731
Heightened Def Con from 2.40731 +++++++++++++++++++++++++++++++++to 2.40731
Heightened Def Con from 2.40765 +to 2.40765
Heightened Def Con from 2.40765 ++++++++++++++++++++++++to 2.40765
Heightened Def Con from 2.40804 +++++++++++++++++++++++++++++++++to 2.40804
Heightened Def Con from 2.40838 +to 2.40838
Heightened Def Con from 2.40838 ++++++++++++++++++++++++to 2.40838
Heightened Def Con from 2.40878 +++++++++++++++++++++++++++++++++to 2.40878
Heightened Def Con from 2.40912 +to 2.40912
Heightened Def Con from 2.40912 to 2.40912
Heightened Def Con from 2.40912 ++++++++++++++++++++++++to 2.40912
Heightened Def Con from 2.40951 +to 2.40951
Heightened Def Con from 2.40951 +++++++++++++++++++++++++++++++++to 2.40951
Heightened Def Con from 2.40985 to 2.40985
Heightened Def Con from 2.40985 ++++++++++++++++++++++++++++++++to 2.40985
Heightened Def Con from 2.41024 to 2.41024
Heightened Def Con from 2.41024 +++++++++++++++++++++++++++++++++to 2.41024
Heightened Def Con from 2.41058 ++++++++++++++++++++++++++++++++to 2.41058
Heightened Def Con from 2.41098 +++++++++++++++++++++++++++++++++to 2.41098
Heightened Def Con from 2.41132 ++++++++++++++++++++++++++++++++to 2.41132
Heightened Def Con from 2.41171 to 2.41171
Heightened Def Con from 2.41171 +to 2.41171
Heightened Def Con from 2.41171 +++++++++++++++++++++++++++++++++to 2.41171
Heightened Def Con from 2.41205 ++++++++++++++++++++++++++++++++to 2.41205
Heightened Def Con from 2.41244 to 2.41244
Heightened Def Con from 2.41244 +to 2.41244
Heightened Def Con from 2.41244 +to 2.41244
Heightened Def Con from 2.41244 to 2.41244
Heightened Def Con from 2.41244 to 2.41244
Heightened Def Con from 2.41244 +++++++++++++++++++++++++++++++++to 2.41244
Heightened Def Con from 2.41278 to 2.41278
Heightened Def Con from 2.41278 ++++++++++++++++++++++++++++++++to 2.41278
Heightened Def Con from 2.41318 to 2.41318
Heightened Def Con from 2.41318 +++++++++++++++++++++++++++++++++to 2.41318
Heightened Def Con from 2.41352 ++++++++++++++++++++++++++++++++to 2.41352
Heightened Def Con from 2.41391 to 2.41391
Heightened Def Con from 2.41391 +++++++++++++++++++++++++++++++++to 2.41391
Heightened Def Con from 2.41425 to 2.41425
Heightened Def Con from 2.41425 +to 2.41425
Heightened Def Con from 2.41425 to 2.41425
Heightened Def Con from 2.41425 ++++++++++++++++++++++++to 2.41425
Heightened Def Con from 2.41464 +to 2.41464
Heightened Def Con from 2.41464 +++++++++++++++++++++++++++++++++to 2.41464
Heightened Def Con from 2.41498 +to 2.41498
Heightened Def Con from 2.41498 to 2.41498
Heightened Def Con from 2.41498 ++++++++++++++++++++++++to 2.41498
Heightened Def Con from 2.41538 to 2.41538
Heightened Def Con from 2.41538 +to 2.41538
Heightened Def Con from 2.41538 +++++++++++++++++++++++++++++++++to 2.41538
Heightened Def Con from 2.41572 to 2.41572
Heightened Def Con from 2.41572 to 2.41572
Heightened Def Con from 2.41572 +to 2.41572
Heightened Def Con from 2.41572 to 2.41572
Heightened Def Con from 2.41572 ++++++++++++++++++++++++++++++++to 2.41572
Heightened Def Con from 2.41611 +++++++++++++++++++++++++++++++++to 2.41611
Heightened Def Con from 2.41645 to 2.41645
Heightened Def Con from 2.41645 ++++++++++++++++++++++++++++++++to 2.41645
Heightened Def Con from 2.41684 to 2.41684
Heightened Def Con from 2.41684 +++++++++++++++++++++++++++++++++to 2.41684
Heightened Def Con from 2.41718 ++++++++++++++++++++++++++++++++to 2.41718
Heightened Def Con from 2.41758 +++++++++++++++++++++++++++++++++to 2.41758
Heightened Def Con from 2.41792 ++++++++++++++++++++++++++++++++to 2.41792
Heightened Def Con from 2.41831 +to 2.41831
Heightened Def Con from 2.41831 +++++++++++++++++++++++++++++++++to 2.41831
Heightened Def Con from 2.41865 ++++++++++++++++++++++++++++++++to 2.41865
Heightened Def Con from 2.41905 +++++++++++++++++++++++++++++++++to 2.41905
Heightened Def Con from 2.41938 ++++++++++++++++++++++++++++++++to 2.41938
Heightened Def Con from 2.41978 ++to 2.41978
Heightened Def Con from 2.41978 to 2.41978
Heightened Def Con from 2.41978 to 2.41978
Heightened Def Con from 2.41978 to 2.41978
Heightened Def Con from 2.41978 +++++++++++++++++++++++++++++++++to 2.41978
Heightened Def Con from 2.42012 ++++++++++++++++++++++++++++++++to 2.42012
Heightened Def Con from 2.42051 +++++++++++++++++++++++++++++++++to 2.42051
Heightened Def Con from 2.42085 ++++++++++++++++++++++++++++++++to 2.42085
Heightened Def Con from 2.42125 +to 2.42125
Heightened Def Con from 2.42125 to 2.42125
Heightened Def Con from 2.42125 to 2.42125
Heightened Def Con from 2.42125 to 2.42125
Heightened Def Con from 2.42125 +++++++++++++++++++++++++++++++++to 2.42125
Heightened Def Con from 2.42159 ++++++++++++++++++++++++++++++++to 2.42159
Heightened Def Con from 2.42198 ++to 2.42198
Heightened Def Con from 2.42198 to 2.42198
Heightened Def Con from 2.42198 +++++++++++++++++++++++++++++++++to 2.42198
Heightened Def Con from 2.42232 to 2.42232
Heightened Def Con from 2.42232 ++++++++++++++++++++++++++++++++to 2.42232
Heightened Def Con from 2.42271 +++++++++++++++++++++++++++++++++to 2.42271
Heightened Def Con from 2.42305 to 2.42305
Heightened Def Con from 2.42305 ++++++++++++++++++++++++to 2.42305
Heightened Def Con from 2.42345 +++++++++++++++++++++++++++++++++to 2.42345
Heightened Def Con from 2.42379 to 2.42379
Heightened Def Con from 2.42379 ++++++++++++++++++++++++++++++++to 2.42379
Heightened Def Con from 2.42418 +to 2.42418
Heightened Def Con from 2.42418 +++++++++++++++++++++++++++++++++to 2.42418
Heightened Def Con from 2.42452 ++++++++++++++++++++++++to 2.42452
Heightened Def Con from 2.42491 to 2.42491
Heightened Def Con from 2.42491 to 2.42491
Heightened Def Con from 2.42491 +to 2.42491
Heightened Def Con from 2.42491 +++++++++++++++++++++++++++++++++to 2.42491
Heightened Def Con from 2.42525 to 2.42525
Heightened Def Con from 2.42525 to 2.42525
Heightened Def Con from 2.42525 to 2.42525
Heightened Def Con from 2.42525 ++++++++++++++++++++++++++++++++to 2.42525
Heightened Def Con from 2.42565 ++to 2.42565
Heightened Def Con from 2.42565 +to 2.42565
Heightened Def Con from 2.42565 to 2.42565
Heightened Def Con from 2.42565 +++++++++++++++++++++++++++++++++to 2.42565
Heightened Def Con from 2.42599 ++++++++++++++++++++++++++++++++to 2.42599
Heightened Def Con from 2.42638 +++++++++++++++++++++++++++++++++to 2.42638
Heightened Def Con from 2.42672 to 2.42672
Heightened Def Con from 2.42672 to 2.42672
Heightened Def Con from 2.42672 ++++++++++++++++++++++++++++++++to 2.42672
Heightened Def Con from 2.42711 to 2.42711
Heightened Def Con from 2.42711 +++++++++++++++++++++++++++++++++to 2.42711
Heightened Def Con from 2.42745 to 2.42745
Heightened Def Con from 2.42745 to 2.42745
Heightened Def Con from 2.42745 +to 2.42745
Heightened Def Con from 2.42745 ++++++++++++++++++++++++++++++++to 2.42745
Heightened Def Con from 2.42785 +++++++++++++++++++++++++++++++++to 2.42785
Heightened Def Con from 2.42819 to 2.42819
Heightened Def Con from 2.42819 ++++++++++++++++++++++++++++++++to 2.42819
Heightened Def Con from 2.42858 +++++++++++++++++++++++++++++++++to 2.42858
Heightened Def Con from 2.42892 ++++++++++++++++++++++++to 2.42892
Heightened Def Con from 2.42931 +++++++++++++++++++++++++++++++++to 2.42931
Heightened Def Con from 2.42965 to 2.42965
Heightened Def Con from 2.42965 +to 2.42965
Heightened Def Con from 2.42965 to 2.42965
Heightened Def Con from 2.42965 ++++++++++++++++++++++++++++++++to 2.42965
Heightened Def Con from 2.43005 +++++++++++++++++++++++++++++++++to 2.43005
Heightened Def Con from 2.43039 +to 2.43039
Heightened Def Con from 2.43039 to 2.43039
Heightened Def Con from 2.43039 to 2.43039
Heightened Def Con from 2.43039 ++++++++++++++++++++++++to 2.43039
Heightened Def Con from 2.43078 ++to 2.43078
Heightened Def Con from 2.43078 to 2.43078
Heightened Def Con from 2.43078 +++++++++++++++++++++++++++++++++to 2.43078
Heightened Def Con from 2.43112 ++++++++++++++++++++++++++++++++to 2.43112
Heightened Def Con from 2.43151 +++++++++++++++++++++++++++++++++to 2.43151
Heightened Def Con from 2.43185 to 2.43185
Heightened Def Con from 2.43185 ++++++++++++++++++++++++++++++++to 2.43185
Heightened Def Con from 2.43225 +++++++++++++++++++++++++++++++++to 2.43225
Heightened Def Con from 2.43259 to 2.43259
Heightened Def Con from 2.43259 +to 2.43259
Heightened Def Con from 2.43259 +to 2.43259
Heightened Def Con from 2.43259 ++++++++++++++++++++++++++++++++to 2.43259
Heightened Def Con from 2.43298 +++++++++++++++++++++++++++++++++to 2.43298
Heightened Def Con from 2.43332 to 2.43332
Heightened Def Con from 2.43332 ++++++++++++++++++++++++++++++++to 2.43332
Heightened Def Con from 2.43371 +++++++++++++++++++++++++++++++++to 2.43371
Heightened Def Con from 2.43405 to 2.43405
Heightened Def Con from 2.43405 ++++++++++++++++++++++++to 2.43405
Heightened Def Con from 2.43445 +++++++++++++++++++++++++++++++++to 2.43445
Heightened Def Con from 2.43479 ++++++++++++++++++++++++++++++++to 2.43479
Heightened Def Con from 2.43518 to 2.43518
Heightened Def Con from 2.43518 +++++++++++++++++++++++++++++++++to 2.43518
Heightened Def Con from 2.43552 to 2.43552
Heightened Def Con from 2.43552 to 2.43552
Heightened Def Con from 2.43552 to 2.43552
Heightened Def Con from 2.43552 ++++++++++++++++++++++++++++++++to 2.43552
Heightened Def Con from 2.43592 to 2.43592
Heightened Def Con from 2.43592 to 2.43592
Heightened Def Con from 2.43592 to 2.43592
Heightened Def Con from 2.43592 +++++++++++++++++++++++++++++++++to 2.43592
Heightened Def Con from 2.43625 +to 2.43625
Heightened Def Con from 2.43625 +to 2.43625
Heightened Def Con from 2.43625 to 2.43625
Heightened Def Con from 2.43625 ++++++++++++++++++++++++++++++++to 2.43625
Heightened Def Con from 2.43665 to 2.43665
Heightened Def Con from 2.43665 to 2.43665
Heightened Def Con from 2.43665 +++++++++++++++++++++++++++++++++to 2.43665
Heightened Def Con from 2.43699 ++++++++++++++++++++++++++++++++to 2.43699
Heightened Def Con from 2.43738 to 2.43738
Heightened Def Con from 2.43738 to 2.43738
Heightened Def Con from 2.43738 +++++++++++++++++++++++++++++++++to 2.43738
Heightened Def Con from 2.43772 ++++++++++++++++++++++++++++++++to 2.43772
Heightened Def Con from 2.43812 +++++++++++++++++++++++++++++++++to 2.43812
Heightened Def Con from 2.43845 ++++++++++++++++++++++++to 2.43845
Heightened Def Con from 2.43885 +to 2.43885
Heightened Def Con from 2.43885 to 2.43885
Heightened Def Con from 2.43885 +++++++++++++++++++++++++++++++++to 2.43885
Heightened Def Con from 2.43919 to 2.43919
Heightened Def Con from 2.43919 to 2.43919
Heightened Def Con from 2.43919 ++++++++++++++++++++++++to 2.43919
Heightened Def Con from 2.43958 to 2.43958
Heightened Def Con from 2.43958 +to 2.43958
Heightened Def Con from 2.43958 ++to 2.43958
Heightened Def Con from 2.43958 +to 2.43958
Heightened Def Con from 2.43958 +++++++++++++++++++++++++++++++++to 2.43958
Heightened Def Con from 2.43992 +to 2.43992
Heightened Def Con from 2.43992 to 2.43992
Heightened Def Con from 2.43992 ++++++++++++++++++++++++to 2.43992
Heightened Def Con from 2.44032 to 2.44032
Heightened Def Con from 2.44032 +to 2.44032
Heightened Def Con from 2.44032 +++++++++++++++++++++++++++++++++to 2.44032
Heightened Def Con from 2.44066 ++++++++++++++++++++++++++++++++to 2.44066
Heightened Def Con from 2.44105 +to 2.44105
Heightened Def Con from 2.44105 +++++++++++++++++++++++++++++++++to 2.44105
Heightened Def Con from 2.44139 to 2.44139
Heightened Def Con from 2.44139 +to 2.44139
Heightened Def Con from 2.44139 to 2.44139
Heightened Def Con from 2.44139 ++++++++++++++++++++++++++++++++to 2.44139
Heightened Def Con from 2.44178 to 2.44178
Heightened Def Con from 2.44178 to 2.44178
Heightened Def Con from 2.44178 +++++++++++++++++++++++++++++++++to 2.44178
Heightened Def Con from 2.44212 to 2.44212
Heightened Def Con from 2.44212 +to 2.44212
Heightened Def Con from 2.44212 ++++++++++++++++++++++++++++++++to 2.44212
Heightened Def Con from 2.44252 to 2.44252
Heightened Def Con from 2.44252 to 2.44252
Heightened Def Con from 2.44252 +to 2.44252
Heightened Def Con from 2.44252 to 2.44252
Heightened Def Con from 2.44252 +++++++++++++++++++++++++++++++++to 2.44252
Heightened Def Con from 2.44286 ++++++++++++++++++++++++++++++++to 2.44286
Heightened Def Con from 2.44325 +to 2.44325
Heightened Def Con from 2.44325 to 2.44325
Heightened Def Con from 2.44325 to 2.44325
Heightened Def Con from 2.44325 to 2.44325
Heightened Def Con from 2.44325 +++++++++++++++++++++++++++++++++to 2.44325
Heightened Def Con from 2.44359 to 2.44359
Heightened Def Con from 2.44359 ++++++++++++++++++++++++++++++++to 2.44359
Heightened Def Con from 2.44398 to 2.44398
Heightened Def Con from 2.44398 +++++++++++++++++++++++++++++++++to 2.44398
Heightened Def Con from 2.44432 to 2.44432
Heightened Def Con from 2.44432 ++++++++++++++++++++++++++++++++to 2.44432
Heightened Def Con from 2.44472 +to 2.44472
Heightened Def Con from 2.44472 +to 2.44472
Heightened Def Con from 2.44472 +to 2.44472
Heightened Def Con from 2.44472 +++++++++++++++++++++++++++++++++to 2.44472
Heightened Def Con from 2.44506 to 2.44506
Heightened Def Con from 2.44506 to 2.44506
Heightened Def Con from 2.44506 to 2.44506
Heightened Def Con from 2.44506 ++++++++++++++++++++++++++++++++to 2.44506
Heightened Def Con from 2.44545 +to 2.44545
Heightened Def Con from 2.44545 +++++++++++++++++++++++++++++++++to 2.44545
Heightened Def Con from 2.44579 +++to 2.44579
Heightened Def Con from 2.44579 +to 2.44579
Heightened Def Con from 2.44579 to 2.44579
Heightened Def Con from 2.44579 to 2.44579
Heightened Def Con from 2.44579 to 2.44579
Heightened Def Con from 2.44579 ++++++++++++++++++++++++++++++++to 2.44579
Heightened Def Con from 2.44618 +to 2.44618
Heightened Def Con from 2.44618 to 2.44618
Heightened Def Con from 2.44618 +++++++++++++++++++++++++++++++++to 2.44618
Heightened Def Con from 2.44652 ++++++++++++++++++++++++to 2.44652
Heightened Def Con from 2.44692 +++++++++++++++++++++++++++++++++to 2.44692
Heightened Def Con from 2.44726 +to 2.44726
Heightened Def Con from 2.44726 ++++++++++++++++++++++++++++++++to 2.44726
Heightened Def Con from 2.44765 to 2.44765
Heightened Def Con from 2.44765 to 2.44765
Heightened Def Con from 2.44765 +to 2.44765
Heightened Def Con from 2.44765 +++++++++++++++++++++++++++++++++to 2.44765
Heightened Def Con from 2.44799 +to 2.44799
Heightened Def Con from 2.44799 ++++++++++++++++++++++++++++++++to 2.44799
Heightened Def Con from 2.44838 +++++++++++++++++++++++++++++++++to 2.44838
Heightened Def Con from 2.44872 ++++++++++++++++++++++++to 2.44872
Heightened Def Con from 2.44912 to 2.44912
Heightened Def Con from 2.44912 +++++++++++++++++++++++++++++++++to 2.44912
Heightened Def Con from 2.44946 to 2.44946
Heightened Def Con from 2.44946 +to 2.44946
Heightened Def Con from 2.44946 ++++++++++++++++++++++++to 2.44946
Heightened Def Con from 2.44985 +++++++++++++++++++++++++++++++++to 2.44985
Heightened Def Con from 2.45019 +to 2.45019
Heightened Def Con from 2.45019 to 2.45019
Heightened Def Con from 2.45019 ++++++++++++++++++++++++to 2.45019
Heightened Def Con from 2.45058 +++++++++++++++++++++++++++++++++to 2.45058
Heightened Def Con from 2.45092 +to 2.45092
Heightened Def Con from 2.45092 +to 2.45092
Heightened Def Con from 2.45092 ++++++++++++++++++++++++to 2.45092
Heightened Def Con from 2.45132 to 2.45132
Heightened Def Con from 2.45132 to 2.45132
Heightened Def Con from 2.45132 +++++++++++++++++++++++++++++++++to 2.45132
Heightened Def Con from 2.45166 ++++++++++++++++++++++++++++++++to 2.45166
Heightened Def Con from 2.45205 to 2.45205
Heightened Def Con from 2.45205 +++++++++++++++++++++++++++++++++to 2.45205
Heightened Def Con from 2.45239 ++++++++++++++++++++++++++++++++to 2.45239
Heightened Def Con from 2.45279 +to 2.45279
Heightened Def Con from 2.45279 +++++++++++++++++++++++++++++++++to 2.45279
Heightened Def Con from 2.45312 to 2.45312
Heightened Def Con from 2.45312 to 2.45312
Heightened Def Con from 2.45312 ++++++++++++++++++++++++++++++++to 2.45312
Heightened Def Con from 2.45352 +++++++++++++++++++++++++++++++++to 2.45352
Heightened Def Con from 2.45386 ++++++++++++++++++++++++++++++++to 2.45386
Heightened Def Con from 2.45425 +++++++++++++++++++++++++++++++++to 2.45425
Heightened Def Con from 2.45459 ++++++++++++++++++++++++to 2.45459
Heightened Def Con from 2.45499 ++to 2.45499
Heightened Def Con from 2.45499 to 2.45499
Heightened Def Con from 2.45499 +++++++++++++++++++++++++++++++++to 2.45499
Heightened Def Con from 2.45532 to 2.45532
Heightened Def Con from 2.45532 ++++++++++++++++++++++++++++++++to 2.45532
Heightened Def Con from 2.45572 +to 2.45572
Heightened Def Con from 2.45572 to 2.45572
Heightened Def Con from 2.45572 to 2.45572
Heightened Def Con from 2.45572 +++++++++++++++++++++++++++++++++to 2.45572
Heightened Def Con from 2.45606 ++++++++++++++++++++++++to 2.45606
Heightened Def Con from 2.45645 to 2.45645
Heightened Def Con from 2.45645 +++++++++++++++++++++++++++++++++to 2.45645
Heightened Def Con from 2.45679 to 2.45679
Heightened Def Con from 2.45679 ++++++++++++++++++++++++++++++++to 2.45679
Heightened Def Con from 2.45719 +++++++++++++++++++++++++++++++++to 2.45719
Heightened Def Con from 2.45753 ++++++++++++++++++++++++to 2.45753
Heightened Def Con from 2.45792 to 2.45792
Heightened Def Con from 2.45792 +to 2.45792
Heightened Def Con from 2.45792 +++++++++++++++++++++++++++++++++to 2.45792
Heightened Def Con from 2.45826 ++to 2.45826
Heightened Def Con from 2.45826 ++to 2.45826
Heightened Def Con from 2.45826 to 2.45826
Heightened Def Con from 2.45826 to 2.45826
Heightened Def Con from 2.45826 ++++++++++++++++++++++++++++++++to 2.45826
Heightened Def Con from 2.45865 to 2.45865
Heightened Def Con from 2.45865 +++++++++++++++++++++++++++++++++to 2.45865
Heightened Def Con from 2.45899 +to 2.45899
Heightened Def Con from 2.45899 ++++++++++++++++++++++++++++++++to 2.45899
Heightened Def Con from 2.45939 +++++++++++++++++++++++++++++++++to 2.45939
Heightened Def Con from 2.45973 +to 2.45973
Heightened Def Con from 2.45973 +to 2.45973
Heightened Def Con from 2.45973 ++++++++++++++++++++++++++++++++to 2.45973
Heightened Def Con from 2.46012 +++++++++++++++++++++++++++++++++to 2.46012
Heightened Def Con from 2.46046 ++++++++++++++++++++++++++++++++to 2.46046
Heightened Def Con from 2.46085 to 2.46085
Heightened Def Con from 2.46085 to 2.46085
Heightened Def Con from 2.46085 +++++++++++++++++++++++++++++++++to 2.46085
Heightened Def Con from 2.46119 ++to 2.46119
Heightened Def Con from 2.46119 to 2.46119
Heightened Def Con from 2.46119 to 2.46119
Heightened Def Con from 2.46119 ++++++++++++++++++++++++++++++++to 2.46119
Heightened Def Con from 2.46159 +++++++++++++++++++++++++++++++++to 2.46159
Heightened Def Con from 2.46193 ++++++++++++++++++++++++to 2.46193
Heightened Def Con from 2.46232 to 2.46232
Heightened Def Con from 2.46232 to 2.46232
Heightened Def Con from 2.46232 +to 2.46232
Heightened Def Con from 2.46232 +++++++++++++++++++++++++++++++++to 2.46232
Heightened Def Con from 2.46266 ++++++++++++++++++++++++++++++++to 2.46266
Heightened Def Con from 2.46305 +to 2.46305
Heightened Def Con from 2.46305 to 2.46305
Heightened Def Con from 2.46305 to 2.46305
Heightened Def Con from 2.46305 +++++++++++++++++++++++++++++++++to 2.46305
Heightened Def Con from 2.46339 ++++++++++++++++++++++++++++++++to 2.46339
Heightened Def Con from 2.46379 +++++++++++++++++++++++++++++++++to 2.46379
Heightened Def Con from 2.46413 to 2.46413
Heightened Def Con from 2.46413 +to 2.46413
Heightened Def Con from 2.46413 ++++++++++++++++++++++++++++++++to 2.46413
Heightened Def Con from 2.46452 to 2.46452
Heightened Def Con from 2.46452 +++++++++++++++++++++++++++++++++to 2.46452
Heightened Def Con from 2.46486 to 2.46486
Heightened Def Con from 2.46486 ++to 2.46486
Heightened Def Con from 2.46486 to 2.46486
Heightened Def Con from 2.46486 ++++++++++++++++++++++++++++++++to 2.46486
Heightened Def Con from 2.46525 +++++++++++++++++++++++++++++++++to 2.46525
Heightened Def Con from 2.46559 to 2.46559
Heightened Def Con from 2.46559 +to 2.46559
Heightened Def Con from 2.46559 +to 2.46559
Heightened Def Con from 2.46559 ++++++++++++++++++++++++to 2.46559
Heightened Def Con from 2.46599 ++to 2.46599
Heightened Def Con from 2.46599 +++++++++++++++++++++++++++++++++to 2.46599
Heightened Def Con from 2.46633 ++to 2.46633
Heightened Def Con from 2.46633 ++++++++++++++++++++++++to 2.46633
Heightened Def Con from 2.46672 to 2.46672
Heightened Def Con from 2.46672 to 2.46672
Heightened Def Con from 2.46672 to 2.46672
Heightened Def Con from 2.46672 +++++++++++++++++++++++++++++++++to 2.46672
Heightened Def Con from 2.46706 ++++++++++++++++++++++++++++++++to 2.46706
Heightened Def Con from 2.46745 to 2.46745
Heightened Def Con from 2.46745 +++++++++++++++++++++++++++++++++to 2.46745
Heightened Def Con from 2.46779 to 2.46779
Heightened Def Con from 2.46779 to 2.46779
Heightened Def Con from 2.46779 ++++++++++++++++++++++++++++++++to 2.46779
Heightened Def Con from 2.46819 +to 2.46819
Heightened Def Con from 2.46819 +to 2.46819
Heightened Def Con from 2.46819 to 2.46819
Heightened Def Con from 2.46819 +++++++++++++++++++++++++++++++++to 2.46819
Heightened Def Con from 2.46853 to 2.46853
Heightened Def Con from 2.46853 ++++++++++++++++++++++++++++++++to 2.46853
Heightened Def Con from 2.46892 to 2.46892
Heightened Def Con from 2.46892 +++++++++++++++++++++++++++++++++to 2.46892
Heightened Def Con from 2.46926 to 2.46926
Heightened Def Con from 2.46926 to 2.46926
Heightened Def Con from 2.46926 ++++++++++++++++++++++++to 2.46926
Heightened Def Con from 2.46965 to 2.46965
Heightened Def Con from 2.46965 +++++++++++++++++++++++++++++++++to 2.46965
Heightened Def Con from 2.46999 to 2.46999
Heightened Def Con from 2.46999 ++++++++++++++++++++++++++++++++to 2.46999
Heightened Def Con from 2.47039 +to 2.47039
Heightened Def Con from 2.47039 +++++++++++++++++++++++++++++++++to 2.47039
Heightened Def Con from 2.47073 to 2.47073
Heightened Def Con from 2.47073 +to 2.47073
Heightened Def Con from 2.47073 to 2.47073
Heightened Def Con from 2.47073 ++++++++++++++++++++++++++++++++to 2.47073
Heightened Def Con from 2.47112 to 2.47112
Heightened Def Con from 2.47112 +++++++++++++++++++++++++++++++++to 2.47112
Heightened Def Con from 2.47146 ++++++++++++++++++++++++++++++++to 2.47146
Heightened Def Con from 2.47186 +++++++++++++++++++++++++++++++++to 2.47186
Heightened Def Con from 2.47219 ++++++++++++++++++++++++++++++++to 2.47219
Heightened Def Con from 2.47259 +++++++++++++++++++++++++++++++++to 2.47259
Heightened Def Con from 2.47293 ++++++++++++++++++++++++++++++++to 2.47293
Heightened Def Con from 2.47332 to 2.47332
Heightened Def Con from 2.47332 to 2.47332
Heightened Def Con from 2.47332 +++++++++++++++++++++++++++++++++to 2.47332
Heightened Def Con from 2.47366 ++++++++++++++++++++++++to 2.47366
Heightened Def Con from 2.47406 +++++++++++++++++++++++++++++++++to 2.47406
Heightened Def Con from 2.4744 to 2.4744
Heightened Def Con from 2.4744 +to 2.4744
Heightened Def Con from 2.4744 +to 2.4744
Heightened Def Con from 2.4744 +to 2.4744
Heightened Def Con from 2.4744 ++++++++++++++++++++++++++++++++to 2.4744
Heightened Def Con from 2.47479 to 2.47479
Heightened Def Con from 2.47479 +++++++++++++++++++++++++++++++++to 2.47479
Heightened Def Con from 2.47513 +to 2.47513
Heightened Def Con from 2.47513 ++++++++++++++++++++++++++++++++to 2.47513
Heightened Def Con from 2.47552 +++++++++++++++++++++++++++++++++to 2.47552
Heightened Def Con from 2.47586 to 2.47586
Heightened Def Con from 2.47586 to 2.47586
Heightened Def Con from 2.47586 to 2.47586
Heightened Def Con from 2.47586 to 2.47586
Heightened Def Con from 2.47586 ++++++++++++++++++++++++++++++++to 2.47586
Heightened Def Con from 2.47626 +++++++++++++++++++++++++++++++++to 2.47626
Heightened Def Con from 2.4766 ++++++++++++++++++++++++++++++++to 2.4766
Heightened Def Con from 2.47699 +++++++++++++++++++++++++++++++++to 2.47699
Heightened Def Con from 2.47733 to 2.47733
Heightened Def Con from 2.47733 to 2.47733
Heightened Def Con from 2.47733 ++++++++++++++++++++++++++++++++to 2.47733
Heightened Def Con from 2.47772 +++++++++++++++++++++++++++++++++to 2.47772
Heightened Def Con from 2.47806 to 2.47806
Heightened Def Con from 2.47806 to 2.47806
Heightened Def Con from 2.47806 ++++++++++++++++++++++++to 2.47806
Heightened Def Con from 2.47846 +++++++++++++++++++++++++++++++++to 2.47846
Heightened Def Con from 2.4788 ++++++++++++++++++++++++++++++++to 2.4788
Heightened Def Con from 2.47919 +++++++++++++++++++++++++++++++++to 2.47919
Heightened Def Con from 2.47953 to 2.47953
Heightened Def Con from 2.47953 to 2.47953
Heightened Def Con from 2.47953 ++++++++++++++++++++++++++++++++to 2.47953
Heightened Def Con from 2.47992 +++++++++++++++++++++++++++++++++to 2.47992
Heightened Def Con from 2.48026 ++++++++++++++++++++++++++++++++to 2.48026
Heightened Def Con from 2.48066 to 2.48066
Heightened Def Con from 2.48066 +++++++++++++++++++++++++++++++++to 2.48066
Heightened Def Con from 2.481 ++++++++++++++++++++++++++++++++to 2.481
Heightened Def Con from 2.48139 +++++++++++++++++++++++++++++++++to 2.48139
Heightened Def Con from 2.48173 to 2.48173
Heightened Def Con from 2.48173 to 2.48173
Heightened Def Con from 2.48173 ++++++++++++++++++++++++to 2.48173
Heightened Def Con from 2.48212 to 2.48212
Heightened Def Con from 2.48212 +to 2.48212
Heightened Def Con from 2.48212 to 2.48212
Heightened Def Con from 2.48212 to 2.48212
Heightened Def Con from 2.48212 to 2.48212
Heightened Def Con from 2.48212 to 2.48212
Heightened Def Con from 2.48212 +++++++++++++++++++++++++++++++++to 2.48212
Heightened Def Con from 2.48246 ++++++++++++++++++++++++++++++++to 2.48246
Heightened Def Con from 2.48286 +++++++++++++++++++++++++++++++++to 2.48286
Heightened Def Con from 2.4832 to 2.4832
Heightened Def Con from 2.4832 +to 2.4832
Heightened Def Con from 2.4832 to 2.4832
Heightened Def Con from 2.4832 +to 2.4832
Heightened Def Con from 2.4832 ++++++++++++++++++++++++++++++++to 2.4832
Heightened Def Con from 2.48359 to 2.48359
Heightened Def Con from 2.48359 +to 2.48359
Heightened Def Con from 2.48359 +++++++++++++++++++++++++++++++++to 2.48359
Heightened Def Con from 2.48393 to 2.48393
Heightened Def Con from 2.48393 +to 2.48393
Heightened Def Con from 2.48393 ++++++++++++++++++++++++++++++++to 2.48393
Heightened Def Con from 2.48432 ++to 2.48432
Heightened Def Con from 2.48432 ++to 2.48432
Heightened Def Con from 2.48432 +to 2.48432
Heightened Def Con from 2.48432 +++++++++++++++++++++++++++++++++to 2.48432
Heightened Def Con from 2.48466 ++++++++++++++++++++++++++++++++to 2.48466
Heightened Def Con from 2.48506 +++++++++++++++++++++++++++++++++to 2.48506
Heightened Def Con from 2.4854 to 2.4854
Heightened Def Con from 2.4854 +to 2.4854
Heightened Def Con from 2.4854 ++++++++++++++++++++++++to 2.4854
Heightened Def Con from 2.48579 +to 2.48579
Heightened Def Con from 2.48579 +++++++++++++++++++++++++++++++++to 2.48579
Heightened Def Con from 2.48613 ++++++++++++++++++++++++++++++++to 2.48613
Heightened Def Con from 2.48652 +++++++++++++++++++++++++++++++++to 2.48652
Heightened Def Con from 2.48686 ++++++++++++++++++++++++to 2.48686
Heightened Def Con from 2.48726 +to 2.48726
Heightened Def Con from 2.48726 to 2.48726
Heightened Def Con from 2.48726 +++++++++++++++++++++++++++++++++to 2.48726
Heightened Def Con from 2.4876 +to 2.4876
Heightened Def Con from 2.4876 +to 2.4876
Heightened Def Con from 2.4876 ++++++++++++++++++++++++to 2.4876
Heightened Def Con from 2.48799 +++++++++++++++++++++++++++++++++to 2.48799
Heightened Def Con from 2.48833 to 2.48833
Heightened Def Con from 2.48833 to 2.48833
Heightened Def Con from 2.48833 ++++++++++++++++++++++++++++++++to 2.48833
Heightened Def Con from 2.48873 ++to 2.48873
Heightened Def Con from 2.48873 +++++++++++++++++++++++++++++++++to 2.48873
Heightened Def Con from 2.48906 to 2.48906
Heightened Def Con from 2.48906 ++++++++++++++++++++++++to 2.48906
Heightened Def Con from 2.48946 +to 2.48946
Heightened Def Con from 2.48946 to 2.48946
Heightened Def Con from 2.48946 to 2.48946
Heightened Def Con from 2.48946 +++++++++++++++++++++++++++++++++to 2.48946
Heightened Def Con from 2.4898 ++++++++++++++++++++++++to 2.4898
Heightened Def Con from 2.49019 +++++++++++++++++++++++++++++++++to 2.49019
Heightened Def Con from 2.49053 ++++++++++++++++++++++++to 2.49053
Heightened Def Con from 2.49093 to 2.49093
Heightened Def Con from 2.49093 +++++++++++++++++++++++++++++++++to 2.49093
Heightened Def Con from 2.49127 to 2.49127
Heightened Def Con from 2.49127 ++++++++++++++++++++++++to 2.49127
Heightened Def Con from 2.49166 to 2.49166
Heightened Def Con from 2.49166 ++to 2.49166
Heightened Def Con from 2.49166 to 2.49166
Heightened Def Con from 2.49166 to 2.49166
Heightened Def Con from 2.49166 +++++++++++++++++++++++++++++++++to 2.49166
Heightened Def Con from 2.492 ++++++++++++++++++++++++++++++++to 2.492
Heightened Def Con from 2.49239 to 2.49239
Heightened Def Con from 2.49239 to 2.49239
Heightened Def Con from 2.49239 to 2.49239
Heightened Def Con from 2.49239 +++++++++++++++++++++++++++++++++to 2.49239
Heightened Def Con from 2.49273 to 2.49273
Heightened Def Con from 2.49273 ++++++++++++++++++++++++++++++++to 2.49273
Heightened Def Con from 2.49313 to 2.49313
Heightened Def Con from 2.49313 +to 2.49313
Heightened Def Con from 2.49313 +++++++++++++++++++++++++++++++++to 2.49313
Heightened Def Con from 2.49347 +to 2.49347
Heightened Def Con from 2.49347 to 2.49347
Heightened Def Con from 2.49347 ++++++++++++++++++++++++++++++++to 2.49347
Heightened Def Con from 2.49386 to 2.49386
Heightened Def Con from 2.49386 +to 2.49386
Heightened Def Con from 2.49386 +++++++++++++++++++++++++++++++++to 2.49386
Heightened Def Con from 2.4942 +to 2.4942
Heightened Def Con from 2.4942 to 2.4942
Heightened Def Con from 2.4942 ++++++++++++++++++++++++++++++++to 2.4942
Heightened Def Con from 2.49459 +to 2.49459
Heightened Def Con from 2.49459 +++++++++++++++++++++++++++++++++to 2.49459
Heightened Def Con from 2.49493 ++++++++++++++++++++++++to 2.49493
Heightened Def Con from 2.49533 to 2.49533
Heightened Def Con from 2.49533 +++++++++++++++++++++++++++++++++to 2.49533
Heightened Def Con from 2.49567 +to 2.49567
Heightened Def Con from 2.49567 to 2.49567
Heightened Def Con from 2.49567 to 2.49567
Heightened Def Con from 2.49567 to 2.49567
Heightened Def Con from 2.49567 ++++++++++++++++++++++++++++++++to 2.49567
Heightened Def Con from 2.49606 ++to 2.49606
Heightened Def Con from 2.49606 to 2.49606
Heightened Def Con from 2.49606 +++++++++++++++++++++++++++++++++to 2.49606
Heightened Def Con from 2.4964 to 2.4964
Heightened Def Con from 2.4964 to 2.4964
Heightened Def Con from 2.4964 to 2.4964
Heightened Def Con from 2.4964 to 2.4964
Heightened Def Con from 2.4964 ++++++++++++++++++++++++++++++++to 2.4964
Heightened Def Con from 2.49679 to 2.49679
Heightened Def Con from 2.49679 +to 2.49679
Heightened Def Con from 2.49679 to 2.49679
Heightened Def Con from 2.49679 +++++++++++++++++++++++++++++++++to 2.49679
Heightened Def Con from 2.49713 +to 2.49713
Heightened Def Con from 2.49713 ++++++++++++++++++++++++++++++++to 2.49713
Heightened Def Con from 2.49753 ++to 2.49753
Heightened Def Con from 2.49753 +++++++++++++++++++++++++++++++++to 2.49753
Heightened Def Con from 2.49787 to 2.49787
Heightened Def Con from 2.49787 ++++++++++++++++++++++++to 2.49787
Heightened Def Con from 2.49826 to 2.49826
Heightened Def Con from 2.49826 ++to 2.49826
Heightened Def Con from 2.49826 +++++++++++++++++++++++++++++++++to 2.49826
Heightened Def Con from 2.4986 +to 2.4986
Heightened Def Con from 2.4986 ++++++++++++++++++++++++to 2.4986
Heightened Def Con from 2.49899 +++++++++++++++++++++++++++++++++to 2.49899
Heightened Def Con from 2.49933 ++++++++++++++++++++++++to 2.49933
Heightened Def Con from 2.49973 +to 2.49973
Heightened Def Con from 2.49973 +++++++++++++++++++++++++++++++++to 2.49973
Heightened Def Con from 2.50007 ++++++++++++++++++++++++to 2.50007
Heightened Def Con from 2.50046 +++++++++++++++++++++++++++++++++to 2.50046
Heightened Def Con from 2.5008 +to 2.5008
Heightened Def Con from 2.5008 to 2.5008
Heightened Def Con from 2.5008 ++++++++++++++++++++++++to 2.5008
Heightened Def Con from 2.50119 +++++++++++++++++++++++++++++++++to 2.50119
Heightened Def Con from 2.50153 ++++++++++++++++++++++++++++++++to 2.50153
Heightened Def Con from 2.50193 to 2.50193
Heightened Def Con from 2.50193 to 2.50193
Heightened Def Con from 2.50193 +++++++++++++++++++++++++++++++++to 2.50193
Heightened Def Con from 2.50227 to 2.50227
Heightened Def Con from 2.50227 ++++++++++++++++++++++++to 2.50227
Heightened Def Con from 2.50266 to 2.50266
Heightened Def Con from 2.50266 to 2.50266
Heightened Def Con from 2.50266 to 2.50266
Heightened Def Con from 2.50266 to 2.50266
Heightened Def Con from 2.50266 to 2.50266
Heightened Def Con from 2.50266 +++++++++++++++++++++++++++++++++to 2.50266
Heightened Def Con from 2.503 to 2.503
Heightened Def Con from 2.503 ++++++++++++++++++++++++++++++++to 2.503
Heightened Def Con from 2.50339 to 2.50339
Heightened Def Con from 2.50339 +++++++++++++++++++++++++++++++++to 2.50339
Heightened Def Con from 2.50373 to 2.50373
Heightened Def Con from 2.50373 to 2.50373
Heightened Def Con from 2.50373 to 2.50373
Heightened Def Con from 2.50373 +to 2.50373
Heightened Def Con from 2.50373 ++++++++++++++++++++++++to 2.50373
Heightened Def Con from 2.50413 +++++++++++++++++++++++++++++++++to 2.50413
Heightened Def Con from 2.50447 ++++++++++++++++++++++++++++++++to 2.50447
Heightened Def Con from 2.50486 to 2.50486
Heightened Def Con from 2.50486 to 2.50486
Heightened Def Con from 2.50486 +++++++++++++++++++++++++++++++++to 2.50486
Heightened Def Con from 2.5052 to 2.5052
Heightened Def Con from 2.5052 to 2.5052
Heightened Def Con from 2.5052 to 2.5052
Heightened Def Con from 2.5052 to 2.5052
Heightened Def Con from 2.5052 ++++++++++++++++++++++++to 2.5052
Heightened Def Con from 2.5056 to 2.5056
Heightened Def Con from 2.5056 to 2.5056
Heightened Def Con from 2.5056 +++++++++++++++++++++++++++++++++to 2.5056
Heightened Def Con from 2.50593 +to 2.50593
Heightened Def Con from 2.50593 to 2.50593
Heightened Def Con from 2.50593 ++++++++++++++++++++++++++++++++to 2.50593
Heightened Def Con from 2.50633 to 2.50633
Heightened Def Con from 2.50633 +++++++++++++++++++++++++++++++++to 2.50633
Heightened Def Con from 2.50667 ++++++++++++++++++++++++++++++++to 2.50667
Heightened Def Con from 2.50706 to 2.50706
Heightened Def Con from 2.50706 +++++++++++++++++++++++++++++++++to 2.50706
Heightened Def Con from 2.5074 to 2.5074
Heightened Def Con from 2.5074 ++++++++++++++++++++++++to 2.5074
Heightened Def Con from 2.5078 +++++++++++++++++++++++++++++++++to 2.5078
Heightened Def Con from 2.50814 to 2.50814
Heightened Def Con from 2.50814 ++++++++++++++++++++++++++++++++to 2.50814
Heightened Def Con from 2.50853 +++++++++++++++++++++++++++++++++to 2.50853
Heightened Def Con from 2.50887 to 2.50887
Heightened Def Con from 2.50887 +to 2.50887
Heightened Def Con from 2.50887 to 2.50887
Heightened Def Con from 2.50887 to 2.50887
Heightened Def Con from 2.50887 ++++++++++++++++++++++++++++++++to 2.50887
Heightened Def Con from 2.50926 to 2.50926
Heightened Def Con from 2.50926 to 2.50926
Heightened Def Con from 2.50926 +++++++++++++++++++++++++++++++++to 2.50926
Heightened Def Con from 2.5096 to 2.5096
Heightened Def Con from 2.5096 to 2.5096
Heightened Def Con from 2.5096 ++++++++++++++++++++++++to 2.5096
Heightened Def Con from 2.51 to 2.51
Heightened Def Con from 2.51 to 2.51
Heightened Def Con from 2.51 to 2.51
Heightened Def Con from 2.51 +++++++++++++++++++++++++++++++++to 2.51
Heightened Def Con from 2.51034 to 2.51034
Heightened Def Con from 2.51034 ++++++++++++++++++++++++to 2.51034
Heightened Def Con from 2.51073 to 2.51073
Heightened Def Con from 2.51073 +++++++++++++++++++++++++++++++++to 2.51073
Heightened Def Con from 2.51107 to 2.51107
Heightened Def Con from 2.51107 to 2.51107
Heightened Def Con from 2.51107 to 2.51107
Heightened Def Con from 2.51107 to 2.51107
Heightened Def Con from 2.51107 to 2.51107
Heightened Def Con from 2.51107 ++++++++++++++++++++++++++++++++to 2.51107
Heightened Def Con from 2.51146 +to 2.51146
Heightened Def Con from 2.51146 +++++++++++++++++++++++++++++++++to 2.51146
Heightened Def Con from 2.5118 to 2.5118
Heightened Def Con from 2.5118 to 2.5118
Heightened Def Con from 2.5118 ++++++++++++++++++++++++to 2.5118
Heightened Def Con from 2.5122 to 2.5122
Heightened Def Con from 2.5122 to 2.5122
Heightened Def Con from 2.5122 +++++++++++++++++++++++++++++++++to 2.5122
Heightened Def Con from 2.51254 to 2.51254
Heightened Def Con from 2.51254 +to 2.51254
Heightened Def Con from 2.51254 +to 2.51254
Heightened Def Con from 2.51254 ++++++++++++++++++++++++to 2.51254
Heightened Def Con from 2.51293 to 2.51293
Heightened Def Con from 2.51293 +++++++++++++++++++++++++++++++++to 2.51293
Heightened Def Con from 2.51327 to 2.51327
Heightened Def Con from 2.51327 ++++++++++++++++++++++++to 2.51327
Heightened Def Con from 2.51366 to 2.51366
Heightened Def Con from 2.51366 to 2.51366
Heightened Def Con from 2.51366 to 2.51366
Heightened Def Con from 2.51366 +++++++++++++++++++++++++++++++++to 2.51366
Heightened Def Con from 2.514 ++++++++++++++++++++++++++++++++to 2.514
Heightened Def Con from 2.5144 +to 2.5144
Heightened Def Con from 2.5144 +++++++++++++++++++++++++++++++++to 2.5144
Heightened Def Con from 2.51474 ++++++++++++++++++++++++++++++++to 2.51474
Heightened Def Con from 2.51513 +++++++++++++++++++++++++++++++++to 2.51513
Heightened Def Con from 2.51547 ++++++++++++++++++++++++++++++++to 2.51547
Heightened Def Con from 2.51586 to 2.51586
Heightened Def Con from 2.51586 +++++++++++++++++++++++++++++++++to 2.51586
Heightened Def Con from 2.5162 ++++++++++++++++++++++++++++++++to 2.5162
Heightened Def Con from 2.5166 to 2.5166
Heightened Def Con from 2.5166 to 2.5166
Heightened Def Con from 2.5166 ++to 2.5166
Heightened Def Con from 2.5166 +++++++++++++++++++++++++++++++++to 2.5166
Heightened Def Con from 2.51694 +to 2.51694
Heightened Def Con from 2.51694 ++++++++++++++++++++++++++++++++to 2.51694
Heightened Def Con from 2.51733 to 2.51733
Heightened Def Con from 2.51733 +++++++++++++++++++++++++++++++++to 2.51733
Heightened Def Con from 2.51767 to 2.51767
Heightened Def Con from 2.51767 to 2.51767
Heightened Def Con from 2.51767 to 2.51767
Heightened Def Con from 2.51767 ++++++++++++++++++++++++++++++++to 2.51767
Heightened Def Con from 2.51806 to 2.51806
Heightened Def Con from 2.51806 to 2.51806
Heightened Def Con from 2.51806 to 2.51806
Heightened Def Con from 2.51806 to 2.51806
Heightened Def Con from 2.51806 +++++++++++++++++++++++++++++++++to 2.51806
Heightened Def Con from 2.5184 +to 2.5184
Heightened Def Con from 2.5184 to 2.5184
Heightened Def Con from 2.5184 ++++++++++++++++++++++++++++++++to 2.5184
Heightened Def Con from 2.5188 +++++++++++++++++++++++++++++++++to 2.5188
Heightened Def Con from 2.51914 ++++++++++++++++++++++++++++++++to 2.51914
Heightened Def Con from 2.51953 +to 2.51953
Heightened Def Con from 2.51953 +++++++++++++++++++++++++++++++++to 2.51953
Heightened Def Con from 2.51987 ++++++++++++++++++++++++to 2.51987
Heightened Def Con from 2.52026 to 2.52026
Heightened Def Con from 2.52026 to 2.52026
Heightened Def Con from 2.52026 +++++++++++++++++++++++++++++++++to 2.52026
Heightened Def Con from 2.5206 +to 2.5206
Heightened Def Con from 2.5206 ++++++++++++++++++++++++++++++++to 2.5206
Heightened Def Con from 2.521 ++to 2.521
Heightened Def Con from 2.521 +++++++++++++++++++++++++++++++++to 2.521
Heightened Def Con from 2.52134 ++++++++++++++++++++++++to 2.52134
Heightened Def Con from 2.52173 to 2.52173
Heightened Def Con from 2.52173 to 2.52173
Heightened Def Con from 2.52173 to 2.52173
Heightened Def Con from 2.52173 +++++++++++++++++++++++++++++++++to 2.52173
Heightened Def Con from 2.52207 to 2.52207
Heightened Def Con from 2.52207 ++++++++++++++++++++++++to 2.52207
Heightened Def Con from 2.52247 to 2.52247
Heightened Def Con from 2.52247 +++++++++++++++++++++++++++++++++to 2.52247
Heightened Def Con from 2.5228 to 2.5228
Heightened Def Con from 2.5228 to 2.5228
Heightened Def Con from 2.5228 ++++++++++++++++++++++++to 2.5228
Heightened Def Con from 2.5232 +++++++++++++++++++++++++++++++++to 2.5232
Heightened Def Con from 2.52354 to 2.52354
Heightened Def Con from 2.52354 to 2.52354
Heightened Def Con from 2.52354 ++++++++++++++++++++++++to 2.52354
Heightened Def Con from 2.52393 +++++++++++++++++++++++++++++++++to 2.52393
Heightened Def Con from 2.52427 +to 2.52427
Heightened Def Con from 2.52427 ++++++++++++++++++++++++++++++++to 2.52427
Heightened Def Con from 2.52467 +++++++++++++++++++++++++++++++++to 2.52467
Heightened Def Con from 2.52501 to 2.52501
Heightened Def Con from 2.52501 +to 2.52501
Heightened Def Con from 2.52501 ++++++++++++++++++++++++++++++++to 2.52501
Heightened Def Con from 2.5254 to 2.5254
Heightened Def Con from 2.5254 ++to 2.5254
Heightened Def Con from 2.5254 +++++++++++++++++++++++++++++++++to 2.5254
Heightened Def Con from 2.52574 +to 2.52574
Heightened Def Con from 2.52574 ++++++++++++++++++++++++++++++++to 2.52574
Heightened Def Con from 2.52613 +to 2.52613
Heightened Def Con from 2.52613 +to 2.52613
Heightened Def Con from 2.52613 to 2.52613
Heightened Def Con from 2.52613 +to 2.52613
Heightened Def Con from 2.52613 +++++++++++++++++++++++++++++++++to 2.52613
Heightened Def Con from 2.52647 to 2.52647
Heightened Def Con from 2.52647 to 2.52647
Heightened Def Con from 2.52647 to 2.52647
Heightened Def Con from 2.52647 ++++++++++++++++++++++++to 2.52647
Heightened Def Con from 2.52687 +++++++++++++++++++++++++++++++++to 2.52687
Heightened Def Con from 2.52721 to 2.52721
Heightened Def Con from 2.52721 to 2.52721
Heightened Def Con from 2.52721 to 2.52721
Heightened Def Con from 2.52721 to 2.52721
Heightened Def Con from 2.52721 to 2.52721
Heightened Def Con from 2.52721 ++++++++++++++++++++++++++++++++to 2.52721
Heightened Def Con from 2.5276 +to 2.5276
Heightened Def Con from 2.5276 to 2.5276
Heightened Def Con from 2.5276 to 2.5276
Heightened Def Con from 2.5276 +++++++++++++++++++++++++++++++++to 2.5276
Heightened Def Con from 2.52794 to 2.52794
Heightened Def Con from 2.52794 ++++++++++++++++++++++++++++++++to 2.52794
Heightened Def Con from 2.52833 to 2.52833
Heightened Def Con from 2.52833 +++++++++++++++++++++++++++++++++to 2.52833
Heightened Def Con from 2.52867 ++++++++++++++++++++++++++++++++to 2.52867
Heightened Def Con from 2.52907 to 2.52907
Heightened Def Con from 2.52907 +++++++++++++++++++++++++++++++++to 2.52907
Heightened Def Con from 2.52941 to 2.52941
Heightened Def Con from 2.52941 to 2.52941
Heightened Def Con from 2.52941 ++++++++++++++++++++++++++++++++to 2.52941
Heightened Def Con from 2.5298 to 2.5298
Heightened Def Con from 2.5298 +++++++++++++++++++++++++++++++++to 2.5298
Heightened Def Con from 2.53014 ++to 2.53014
Heightened Def Con from 2.53014 ++++++++++++++++++++++++++++++++to 2.53014
Heightened Def Con from 2.53053 to 2.53053
Heightened Def Con from 2.53053 to 2.53053
Heightened Def Con from 2.53053 +++++++++++++++++++++++++++++++++to 2.53053
Heightened Def Con from 2.53087 to 2.53087
Heightened Def Con from 2.53087 ++++++++++++++++++++++++++++++++to 2.53087
Heightened Def Con from 2.53127 +++++++++++++++++++++++++++++++++to 2.53127
Heightened Def Con from 2.53161 ++++++++++++++++++++++++to 2.53161
Heightened Def Con from 2.532 to 2.532
Heightened Def Con from 2.532 to 2.532
Heightened Def Con from 2.532 +++++++++++++++++++++++++++++++++to 2.532
Heightened Def Con from 2.53234 to 2.53234
Heightened Def Con from 2.53234 ++++++++++++++++++++++++to 2.53234
Heightened Def Con from 2.53273 +++++++++++++++++++++++++++++++++to 2.53273
Heightened Def Con from 2.53307 ++++++++++++++++++++++++to 2.53307
Heightened Def Con from 2.53347 to 2.53347
Heightened Def Con from 2.53347 +++++++++++++++++++++++++++++++++to 2.53347
Heightened Def Con from 2.53381 ++++++++++++++++++++++++++++++++to 2.53381
Heightened Def Con from 2.5342 to 2.5342
Heightened Def Con from 2.5342 +++++++++++++++++++++++++++++++++to 2.5342
Heightened Def Con from 2.53454 to 2.53454
Heightened Def Con from 2.53454 to 2.53454
Heightened Def Con from 2.53454 ++++++++++++++++++++++++++++++++to 2.53454
Heightened Def Con from 2.53493 +to 2.53493
Heightened Def Con from 2.53493 +++++++++++++++++++++++++++++++++to 2.53493
Heightened Def Con from 2.53527 +to 2.53527
Heightened Def Con from 2.53527 to 2.53527
Heightened Def Con from 2.53527 +to 2.53527
Heightened Def Con from 2.53527 +to 2.53527
Heightened Def Con from 2.53527 ++++++++++++++++++++++++++++++++to 2.53527
Heightened Def Con from 2.53567 +++++++++++++++++++++++++++++++++to 2.53567
Heightened Def Con from 2.53601 ++++++++++++++++++++++++++++++++to 2.53601
Heightened Def Con from 2.5364 to 2.5364
Heightened Def Con from 2.5364 to 2.5364
Heightened Def Con from 2.5364 +++++++++++++++++++++++++++++++++to 2.5364
Heightened Def Con from 2.53674 to 2.53674
Heightened Def Con from 2.53674 ++++++++++++++++++++++++++++++++to 2.53674
Heightened Def Con from 2.53713 to 2.53713
Heightened Def Con from 2.53713 +++++++++++++++++++++++++++++++++to 2.53713
Heightened Def Con from 2.53747 ++++++++++++++++++++++++to 2.53747
Heightened Def Con from 2.53787 to 2.53787
Heightened Def Con from 2.53787 ++to 2.53787
Heightened Def Con from 2.53787 to 2.53787
Heightened Def Con from 2.53787 ++to 2.53787
Heightened Def Con from 2.53787 +++++++++++++++++++++++++++++++++to 2.53787
Heightened Def Con from 2.53821 to 2.53821
Heightened Def Con from 2.53821 ++++++++++++++++++++++++++++++++to 2.53821
Heightened Def Con from 2.5386 +++++++++++++++++++++++++++++++++to 2.5386
Heightened Def Con from 2.53894 ++++++++++++++++++++++++++++++++to 2.53894
Heightened Def Con from 2.53934 ++++++++++++++++++++++++to 2.53934
Heightened Def Con from 2.53967 to 2.53967
Heightened Def Con from 2.53967 to 2.53967
Heightened Def Con from 2.53967 to 2.53967
Heightened Def Con from 2.53967 ++++++++++++++++++++++++to 2.53967
Heightened Def Con from 2.54007 to 2.54007
Heightened Def Con from 2.54007 to 2.54007
Heightened Def Con from 2.54007 +++++++++++++++++++++++++++++++++to 2.54007
Heightened Def Con from 2.54041 +to 2.54041
Heightened Def Con from 2.54041 to 2.54041
Heightened Def Con from 2.54041 to 2.54041
Heightened Def Con from 2.54041 ++++++++++++++++++++++++++++++++to 2.54041
Heightened Def Con from 2.5408 to 2.5408
Heightened Def Con from 2.5408 +++++++++++++++++++++++++++++++++to 2.5408
Heightened Def Con from 2.54114 ++++++++++++++++++++++++++++++++to 2.54114
Heightened Def Con from 2.54154 to 2.54154
Heightened Def Con from 2.54154 +++++++++++++++++++++++++++++++++to 2.54154
Heightened Def Con from 2.54188 ++++++++++++++++++++++++to 2.54188
Heightened Def Con from 2.54227 +++++++++++++++++++++++++++++++++to 2.54227
Heightened Def Con from 2.54261 to 2.54261
Heightened Def Con from 2.54261 to 2.54261
Heightened Def Con from 2.54261 ++++++++++++++++++++++++to 2.54261
Heightened Def Con from 2.543 to 2.543
Heightened Def Con from 2.543 to 2.543
Heightened Def Con from 2.543 +++++++++++++++++++++++++++++++++to 2.543
Heightened Def Con from 2.54334 ++++++++++++++++++++++++to 2.54334
Heightened Def Con from 2.54374 +++++++++++++++++++++++++++++++++to 2.54374
Heightened Def Con from 2.54408 to 2.54408
Heightened Def Con from 2.54408 ++++++++++++++++++++++++++++++++to 2.54408
Heightened Def Con from 2.54447 ++to 2.54447
Heightened Def Con from 2.54447 to 2.54447
Heightened Def Con from 2.54447 +++++++++++++++++++++++++++++++++to 2.54447
Heightened Def Con from 2.54481 ++++++++++++++++++++++++++++++++to 2.54481
Heightened Def Con from 2.5452 to 2.5452
Heightened Def Con from 2.5452 +++++++++++++++++++++++++++++++++to 2.5452
Heightened Def Con from 2.54554 ++++++++++++++++++++++++++++++++to 2.54554
[...]
Heightened Def Con from 2.94348 to 2.94348
Heightened Def Con from 2.94348 +++++++++++++++++++++++++++++++++to 2.94348
Heightened Def Con from 2.94382 ++to 2.94382
Heightened Def Con from 2.94382 +to 2.94382
Heightened Def Con from 2.94382 ++++++++++++++++++++++++++++++++to 2.94382
Heightened Def Con from 2.94422 to 2.94422
Heightened Def Con from 2.94422 +++++++++++++++++++++++++++++++++to 2.94422
Heightened Def Con from 2.94456 +to 2.94456
Heightened Def Con from 2.94456 ++++++++++++++++++++++++++++++++to 2.94456
Heightened Def Con from 2.94495 to 2.94495
Heightened Def Con from 2.94495 +to 2.94495
Heightened Def Con from 2.94495 +++++++++++++++++++++++++++++++++to 2.94495
Heightened Def Con from 2.94529 ++++++++++++++++++++++++++++++++to 2.94529
Heightened Def Con from 2.94568 to 2.94568
Heightened Def Con from 2.94568 ++to 2.94568
Heightened Def Con from 2.94568 +++++++++++++++++++++++++++++++++to 2.94568
Heightened Def Con from 2.94602 ++++++++++++++++++++++++++++++++to 2.94602
Heightened Def Con from 2.94642 ++to 2.94642
Heightened Def Con from 2.94642 +to 2.94642
Heightened Def Con from 2.94642 +++++++++++++++++++++++++++++++++to 2.94642
Heightened Def Con from 2.94676 to 2.94676
Heightened Def Con from 2.94676 to 2.94676
Heightened Def Con from 2.94676 ++++++++++++++++++++++++to 2.94676
Heightened Def Con from 2.94715 +++++++++++++++++++++++++++++++++to 2.94715
Heightened Def Con from 2.94749 +to 2.94749
Heightened Def Con from 2.94749 +to 2.94749
Heightened Def Con from 2.94749 ++++++++++++++++++++++++to 2.94749
Heightened Def Con from 2.94788 ++to 2.94788
Heightened Def Con from 2.94788 to 2.94788
Heightened Def Con from 2.94788 to 2.94788
Heightened Def Con from 2.94788 to 2.94788
Heightened Def Con from 2.94788 +to 2.94788
Heightened Def Con from 2.94788 to 2.94788
Heightened Def Con from 2.94788 +++++++++++++++++++++++++++++++++to 2.94788
Heightened Def Con from 2.94822 ++++++++++++++++++++++++++++++++to 2.94822
Heightened Def Con from 2.94862 to 2.94862
Heightened Def Con from 2.94862 +to 2.94862
Heightened Def Con from 2.94862 +++++++++++++++++++++++++++++++++to 2.94862
Heightened Def Con from 2.94896 +to 2.94896
Heightened Def Con from 2.94896 to 2.94896
Heightened Def Con from 2.94896 to 2.94896
Heightened Def Con from 2.94896 to 2.94896
Heightened Def Con from 2.94896 to 2.94896
Heightened Def Con from 2.94896 ++++++++++++++++++++++++to 2.94896
Heightened Def Con from 2.94935 to 2.94935
Heightened Def Con from 2.94935 to 2.94935
Heightened Def Con from 2.94935 +to 2.94935
Heightened Def Con from 2.94935 ++to 2.94935
Heightened Def Con from 2.94935 +++++++++++++++++++++++++++++++++to 2.94935
Heightened Def Con from 2.94969 to 2.94969
Heightened Def Con from 2.94969 ++++++++++++++++++++++++++++++++to 2.94969
Heightened Def Con from 2.95008 ++to 2.95008
Heightened Def Con from 2.95008 +++++++++++++++++++++++++++++++++to 2.95008
Heightened Def Con from 2.95042 ++++++++++++++++++++++++to 2.95042
Heightened Def Con from 2.95082 +++++++++++++++++++++++++++++++++to 2.95082
Heightened Def Con from 2.95116 to 2.95116
Heightened Def Con from 2.95116 to 2.95116
Heightened Def Con from 2.95116 ++++++++++++++++++++++++++++++++to 2.95116
Heightened Def Con from 2.95155 to 2.95155
Heightened Def Con from 2.95155 to 2.95155
Heightened Def Con from 2.95155 +to 2.95155
Heightened Def Con from 2.95155 +++++++++++++++++++++++++++++++++to 2.95155
Heightened Def Con from 2.95189 +to 2.95189
Heightened Def Con from 2.95189 +to 2.95189
Heightened Def Con from 2.95189 ++++++++++++++++++++++++++++++++to 2.95189
Heightened Def Con from 2.95228 +++++++++++++++++++++++++++++++++to 2.95228
Heightened Def Con from 2.95262 +to 2.95262
Heightened Def Con from 2.95262 ++++++++++++++++++++++++to 2.95262
Heightened Def Con from 2.95302 to 2.95302
Heightened Def Con from 2.95302 +++++++++++++++++++++++++++++++++to 2.95302
Heightened Def Con from 2.95336 ++++++++++++++++++++++++to 2.95336
Heightened Def Con from 2.95375 to 2.95375
Heightened Def Con from 2.95375 +++++++++++++++++++++++++++++++++to 2.95375
Heightened Def Con from 2.95409 ++++++++++++++++++++++++to 2.95409
Heightened Def Con from 2.95448 to 2.95448
Heightened Def Con from 2.95448 to 2.95448
Heightened Def Con from 2.95448 +++++++++++++++++++++++++++++++++to 2.95448
Heightened Def Con from 2.95482 to 2.95482
Heightened Def Con from 2.95482 ++++++++++++++++++++++++++++++++to 2.95482
Heightened Def Con from 2.95522 +to 2.95522
Heightened Def Con from 2.95522 +to 2.95522
Heightened Def Con from 2.95522 +++++++++++++++++++++++++++++++++to 2.95522
Heightened Def Con from 2.95556 ++++++++++++++++++++++++to 2.95556
Heightened Def Con from 2.95595 to 2.95595
Heightened Def Con from 2.95595 to 2.95595
Heightened Def Con from 2.95595 to 2.95595
Heightened Def Con from 2.95595 +++++++++++++++++++++++++++++++++to 2.95595
Heightened Def Con from 2.95629 ++++++++++++++++++++++++++++++++to 2.95629
Heightened Def Con from 2.95669 to 2.95669
Heightened Def Con from 2.95669 to 2.95669
Heightened Def Con from 2.95669 ++to 2.95669
Heightened Def Con from 2.95669 to 2.95669
Heightened Def Con from 2.95669 +++++++++++++++++++++++++++++++++to 2.95669
Heightened Def Con from 2.95702 ++++++++++++++++++++++++++++++++to 2.95702
Heightened Def Con from 2.95742 +++++++++++++++++++++++++++++++++to 2.95742
Heightened Def Con from 2.95776 ++++++++++++++++++++++++to 2.95776
Heightened Def Con from 2.95815 to 2.95815
Heightened Def Con from 2.95815 to 2.95815
Heightened Def Con from 2.95815 +++++++++++++++++++++++++++++++++to 2.95815
Heightened Def Con from 2.95849 to 2.95849
Heightened Def Con from 2.95849 ++++++++++++++++++++++++to 2.95849
Heightened Def Con from 2.95889 +++to 2.95889
Heightened Def Con from 2.95889 +++++++++++++++++++++++++++++++++to 2.95889
Heightened Def Con from 2.95923 to 2.95923
Heightened Def Con from 2.95923 to 2.95923
Heightened Def Con from 2.95923 ++++++++++++++++++++++++to 2.95923
Heightened Def Con from 2.95962 to 2.95962
Heightened Def Con from 2.95962 to 2.95962
Heightened Def Con from 2.95962 +++++++++++++++++++++++++++++++++to 2.95962
Heightened Def Con from 2.95996 to 2.95996
Heightened Def Con from 2.95996 to 2.95996
Heightened Def Con from 2.95996 to 2.95996
Heightened Def Con from 2.95996 ++++++++++++++++++++++++++++++++to 2.95996
Heightened Def Con from 2.96035 to 2.96035
Heightened Def Con from 2.96035 +to 2.96035
Heightened Def Con from 2.96035 +++++++++++++++++++++++++++++++++to 2.96035
Heightened Def Con from 2.96069 ++++++++++++++++++++++++++++++++to 2.96069
Heightened Def Con from 2.96109 +++++++++++++++++++++++++++++++++to 2.96109
Heightened Def Con from 2.96143 ++to 2.96143
Heightened Def Con from 2.96143 to 2.96143
Heightened Def Con from 2.96143 ++++++++++++++++++++++++++++++++to 2.96143
Heightened Def Con from 2.96182 to 2.96182
Heightened Def Con from 2.96182 +++++++++++++++++++++++++++++++++to 2.96182
Heightened Def Con from 2.96216 ++++++++++++++++++++++++++++++++to 2.96216
Heightened Def Con from 2.96255 +++++++++++++++++++++++++++++++++to 2.96255
Heightened Def Con from 2.96289 to 2.96289
Heightened Def Con from 2.96289 to 2.96289
Heightened Def Con from 2.96289 ++++++++++++++++++++++++++++++++to 2.96289
Heightened Def Con from 2.96329 to 2.96329
Heightened Def Con from 2.96329 +++++++++++++++++++++++++++++++++to 2.96329
Heightened Def Con from 2.96363 to 2.96363
Heightened Def Con from 2.96363 ++++++++++++++++++++++++++++++++to 2.96363
Heightened Def Con from 2.96402 to 2.96402
Heightened Def Con from 2.96402 +++++++++++++++++++++++++++++++++to 2.96402
Heightened Def Con from 2.96436 to 2.96436
Heightened Def Con from 2.96436 ++++++++++++++++++++++++++++++++to 2.96436
Heightened Def Con from 2.96475 to 2.96475
Heightened Def Con from 2.96475 ++to 2.96475
Heightened Def Con from 2.96475 +++++++++++++++++++++++++++++++++to 2.96475
Heightened Def Con from 2.96509 ++++++++++++++++++++++++++++++++to 2.96509
Heightened Def Con from 2.96549 to 2.96549
Heightened Def Con from 2.96549 to 2.96549
Heightened Def Con from 2.96549 +++++++++++++++++++++++++++++++++to 2.96549
Heightened Def Con from 2.96583 to 2.96583
Heightened Def Con from 2.96583 ++++++++++++++++++++++++++++++++to 2.96583
Heightened Def Con from 2.96622 to 2.96622
Heightened Def Con from 2.96622 +++++++++++++++++++++++++++++++++to 2.96622
Heightened Def Con from 2.96656 to 2.96656
Heightened Def Con from 2.96656 ++++++++++++++++++++++++to 2.96656
Heightened Def Con from 2.96695 ++to 2.96695
Heightened Def Con from 2.96695 to 2.96695
Heightened Def Con from 2.96695 +++++++++++++++++++++++++++++++++to 2.96695
Heightened Def Con from 2.96729 to 2.96729
Heightened Def Con from 2.96729 +to 2.96729
Heightened Def Con from 2.96729 to 2.96729
Heightened Def Con from 2.96729 ++++++++++++++++++++++++++++++++to 2.96729
Heightened Def Con from 2.96769 to 2.96769
Heightened Def Con from 2.96769 to 2.96769
Heightened Def Con from 2.96769 +++++++++++++++++++++++++++++++++to 2.96769
Heightened Def Con from 2.96803 ++++++++++++++++++++++++++++++++to 2.96803
Heightened Def Con from 2.96842 to 2.96842
Heightened Def Con from 2.96842 to 2.96842
Heightened Def Con from 2.96842 +++++++++++++++++++++++++++++++++to 2.96842
Heightened Def Con from 2.96876 ++++++++++++++++++++++++++++++++to 2.96876
Heightened Def Con from 2.96915 +++++++++++++++++++++++++++++++++to 2.96915
Heightened Def Con from 2.96949 to 2.96949
Heightened Def Con from 2.96949 ++++++++++++++++++++++++++++++++to 2.96949
Heightened Def Con from 2.96989 to 2.96989
Heightened Def Con from 2.96989 +++++++++++++++++++++++++++++++++to 2.96989
Heightened Def Con from 2.97023 ++++++++++++++++++++++++to 2.97023
Heightened Def Con from 2.97062 to 2.97062
Heightened Def Con from 2.97062 to 2.97062
Heightened Def Con from 2.97062 +++++++++++++++++++++++++++++++++to 2.97062
Heightened Def Con from 2.97096 to 2.97096
Heightened Def Con from 2.97096 ++to 2.97096
Heightened Def Con from 2.97096 to 2.97096
Heightened Def Con from 2.97096 ++++++++++++++++++++++++++++++++to 2.97096
Heightened Def Con from 2.97135 to 2.97135
Heightened Def Con from 2.97135 to 2.97135
Heightened Def Con from 2.97135 +++++++++++++++++++++++++++++++++to 2.97135
Heightened Def Con from 2.97169 to 2.97169
Heightened Def Con from 2.97169 to 2.97169
Heightened Def Con from 2.97169 ++++++++++++++++++++++++++++++++to 2.97169
Heightened Def Con from 2.97209 +++++++++++++++++++++++++++++++++to 2.97209
Heightened Def Con from 2.97243 ++++++++++++++++++++++++to 2.97243
Heightened Def Con from 2.97282 +++++++++++++++++++++++++++++++++to 2.97282
Heightened Def Con from 2.97316 to 2.97316
Heightened Def Con from 2.97316 to 2.97316
Heightened Def Con from 2.97316 to 2.97316
Heightened Def Con from 2.97316 ++++++++++++++++++++++++++++++++to 2.97316
Heightened Def Con from 2.97356 +to 2.97356
Heightened Def Con from 2.97356 to 2.97356
Heightened Def Con from 2.97356 +++++++++++++++++++++++++++++++++to 2.97356
Heightened Def Con from 2.97389 ++++++++++++++++++++++++to 2.97389
Heightened Def Con from 2.97429 to 2.97429
Heightened Def Con from 2.97429 +++++++++++++++++++++++++++++++++to 2.97429
Heightened Def Con from 2.97463 to 2.97463
Heightened Def Con from 2.97463 to 2.97463
Heightened Def Con from 2.97463 ++++++++++++++++++++++++++++++++to 2.97463
Heightened Def Con from 2.97502 ++to 2.97502
Heightened Def Con from 2.97502 +++++++++++++++++++++++++++++++++to 2.97502
Heightened Def Con from 2.97536 +to 2.97536
Heightened Def Con from 2.97536 to 2.97536
Heightened Def Con from 2.97536 to 2.97536
Heightened Def Con from 2.97536 ++to 2.97536
Heightened Def Con from 2.97536 +to 2.97536
Heightened Def Con from 2.97536 ++++++++++++++++++++++++to 2.97536
Heightened Def Con from 2.97576 +++++++++++++++++++++++++++++++++to 2.97576
Heightened Def Con from 2.9761 to 2.9761
Heightened Def Con from 2.9761 ++++++++++++++++++++++++to 2.9761
Heightened Def Con from 2.97649 +++++++++++++++++++++++++++++++++to 2.97649
Heightened Def Con from 2.97683 ++++++++++++++++++++++++to 2.97683
Heightened Def Con from 2.97722 +++++++++++++++++++++++++++++++++to 2.97722
Heightened Def Con from 2.97756 ++++++++++++++++++++++++++++++++to 2.97756
Heightened Def Con from 2.97796 to 2.97796
Heightened Def Con from 2.97796 ++to 2.97796
Heightened Def Con from 2.97796 +++++++++++++++++++++++++++++++++to 2.97796
Heightened Def Con from 2.9783 +to 2.9783
Heightened Def Con from 2.9783 to 2.9783
Heightened Def Con from 2.9783 ++++++++++++++++++++++++to 2.9783
Heightened Def Con from 2.97869 +++++++++++++++++++++++++++++++++to 2.97869
Heightened Def Con from 2.97903 ++++++++++++++++++++++++++++++++to 2.97903
Heightened Def Con from 2.97942 to 2.97942
Heightened Def Con from 2.97942 to 2.97942
Heightened Def Con from 2.97942 +++++++++++++++++++++++++++++++++to 2.97942
Heightened Def Con from 2.97976 ++++++++++++++++++++++++to 2.97976
Heightened Def Con from 2.98016 +++++++++++++++++++++++++++++++++to 2.98016
Heightened Def Con from 2.9805 to 2.9805
Heightened Def Con from 2.9805 ++++++++++++++++++++++++++++++++to 2.9805
Heightened Def Con from 2.98089 ++to 2.98089
Heightened Def Con from 2.98089 +to 2.98089
Heightened Def Con from 2.98089 +++++++++++++++++++++++++++++++++to 2.98089
Heightened Def Con from 2.98123 to 2.98123
Heightened Def Con from 2.98123 to 2.98123
Heightened Def Con from 2.98123 +to 2.98123
Heightened Def Con from 2.98123 to 2.98123
Heightened Def Con from 2.98123 ++++++++++++++++++++++++to 2.98123
Heightened Def Con from 2.98162 ++to 2.98162
Heightened Def Con from 2.98162 +++++++++++++++++++++++++++++++++to 2.98162
Heightened Def Con from 2.98196 ++++++++++++++++++++++++++++++++to 2.98196
Heightened Def Con from 2.98236 +++++++++++++++++++++++++++++++++to 2.98236
Heightened Def Con from 2.9827 ++to 2.9827
Heightened Def Con from 2.9827 to 2.9827
Heightened Def Con from 2.9827 ++++++++++++++++++++++++++++++++to 2.9827
Heightened Def Con from 2.98309 +++++++++++++++++++++++++++++++++to 2.98309
Heightened Def Con from 2.98343 ++++++++++++++++++++++++++++++++to 2.98343
Heightened Def Con from 2.98382 to 2.98382
Heightened Def Con from 2.98382 +++++++++++++++++++++++++++++++++to 2.98382
Heightened Def Con from 2.98416 ++++++++++++++++++++++++++++++++to 2.98416
Heightened Def Con from 2.98456 +++++++++++++++++++++++++++++++++to 2.98456
Heightened Def Con from 2.9849 ++++++++++++++++++++++++++++++++to 2.9849
Heightened Def Con from 2.98529 +++++++++++++++++++++++++++++++++to 2.98529
Heightened Def Con from 2.98563 to 2.98563
Heightened Def Con from 2.98563 to 2.98563
Heightened Def Con from 2.98563 +to 2.98563
Heightened Def Con from 2.98563 to 2.98563
Heightened Def Con from 2.98563 +to 2.98563
Heightened Def Con from 2.98563 ++++++++++++++++++++++++++++++++to 2.98563
Heightened Def Con from 2.98602 to 2.98602
Heightened Def Con from 2.98602 +++++++++++++++++++++++++++++++++to 2.98602
Heightened Def Con from 2.98636 ++++++++++++++++++++++++to 2.98636
Heightened Def Con from 2.98676 to 2.98676
Heightened Def Con from 2.98676 +++++++++++++++++++++++++++++++++to 2.98676
Heightened Def Con from 2.9871 to 2.9871
Heightened Def Con from 2.9871 to 2.9871
Heightened Def Con from 2.9871 to 2.9871
Heightened Def Con from 2.9871 ++++++++++++++++++++++++++++++++to 2.9871
Heightened Def Con from 2.98749 +++++++++++++++++++++++++++++++++to 2.98749
Heightened Def Con from 2.98783 to 2.98783
Heightened Def Con from 2.98783 ++++++++++++++++++++++++++++++++to 2.98783
Heightened Def Con from 2.98822 to 2.98822
Heightened Def Con from 2.98822 to 2.98822
Heightened Def Con from 2.98822 +++++++++++++++++++++++++++++++++to 2.98822
Heightened Def Con from 2.98856 ++++++++++++++++++++++++++++++++to 2.98856
Heightened Def Con from 2.98896 +++++++++++++++++++++++++++++++++to 2.98896
Heightened Def Con from 2.9893 ++to 2.9893
Heightened Def Con from 2.9893 +to 2.9893
Heightened Def Con from 2.9893 ++++++++++++++++++++++++to 2.9893
Heightened Def Con from 2.98969 +++++++++++++++++++++++++++++++++to 2.98969
Heightened Def Con from 2.99003 ++++++++++++++++++++++++++++++++to 2.99003
Heightened Def Con from 2.99043 to 2.99043
Heightened Def Con from 2.99043 +++++++++++++++++++++++++++++++++to 2.99043
Heightened Def Con from 2.99076 +to 2.99076
Heightened Def Con from 2.99076 to 2.99076
Heightened Def Con from 2.99076 +to 2.99076
Heightened Def Con from 2.99076 ++++++++++++++++++++++++to 2.99076
Heightened Def Con from 2.99116 to 2.99116
Heightened Def Con from 2.99116 +++++++++++++++++++++++++++++++++to 2.99116
Heightened Def Con from 2.9915 to 2.9915
Heightened Def Con from 2.9915 ++++++++++++++++++++++++++++++++to 2.9915
Heightened Def Con from 2.99189 to 2.99189
Heightened Def Con from 2.99189 to 2.99189
Heightened Def Con from 2.99189 to 2.99189
Heightened Def Con from 2.99189 +++++++++++++++++++++++++++++++++to 2.99189
Heightened Def Con from 2.99223 ++++++++++++++++++++++++++++++++to 2.99223
Heightened Def Con from 2.99263 to 2.99263
Heightened Def Con from 2.99263 ++to 2.99263
Heightened Def Con from 2.99263 to 2.99263
Heightened Def Con from 2.99263 +++++++++++++++++++++++++++++++++to 2.99263
Heightened Def Con from 2.99297 to 2.99297
Heightened Def Con from 2.99297 to 2.99297
Heightened Def Con from 2.99297 to 2.99297
Heightened Def Con from 2.99297 to 2.99297
Heightened Def Con from 2.99297 ++++++++++++++++++++++++to 2.99297
Heightened Def Con from 2.99336 +++++++++++++++++++++++++++++++++to 2.99336
Heightened Def Con from 2.9937 to 2.9937
Heightened Def Con from 2.9937 ++++++++++++++++++++++++++++++++to 2.9937
Heightened Def Con from 2.99409 to 2.99409
Heightened Def Con from 2.99409 +++++++++++++++++++++++++++++++++to 2.99409
Heightened Def Con from 2.99443 ++to 2.99443
Heightened Def Con from 2.99443 to 2.99443
Heightened Def Con from 2.99443 ++to 2.99443
Heightened Def Con from 2.99443 +to 2.99443
Heightened Def Con from 2.99443 ++++++++++++++++++++++++++++++++to 2.99443
Heightened Def Con from 2.99483 +++++++++++++++++++++++++++++++++to 2.99483
Heightened Def Con from 2.99517 ++++++++++++++++++++++++++++++++to 2.99517
Heightened Def Con from 2.99556 to 2.99556
Heightened Def Con from 2.99556 +to 2.99556
Heightened Def Con from 2.99556 +++++++++++++++++++++++++++++++++to 2.99556
Heightened Def Con from 2.9959 to 2.9959
Heightened Def Con from 2.9959 ++++++++++++++++++++++++to 2.9959
Heightened Def Con from 2.99629 to 2.99629
Heightened Def Con from 2.99629 to 2.99629
Heightened Def Con from 2.99629 +++++++++++++++++++++++++++++++++to 2.99629
Heightened Def Con from 2.99663 to 2.99663
Heightened Def Con from 2.99663 to 2.99663
Heightened Def Con from 2.99663 ++++++++++++++++++++++++++++++++to 2.99663
Heightened Def Con from 2.99703 +++++++++++++++++++++++++++++++++to 2.99703
Heightened Def Con from 2.99737 to 2.99737
Heightened Def Con from 2.99737 ++++++++++++++++++++++++to 2.99737
Heightened Def Con from 2.99776 to 2.99776
Heightened Def Con from 2.99776 +++++++++++++++++++++++++++++++++to 2.99776
Heightened Def Con from 2.9981 ++++++++++++++++++++++++to 2.9981
Heightened Def Con from 2.99849 to 2.99849
Heightened Def Con from 2.99849 +++++++++++++++++++++++++++++++++to 2.99849
Heightened Def Con from 2.99883 ++++++++++++++++++++++++++++++++to 2.99883
Heightened Def Con from 2.99923 ++to 2.99923
Heightened Def Con from 2.99923 +to 2.99923
Heightened Def Con from 2.99923 +++++++++++++++++++++++++++++++++to 2.99923
Heightened Def Con from 2.99957 to 2.99957
Heightened Def Con from 2.99957 to 2.99957
Heightened Def Con from 2.99957 ++++++++++++++++++++++++++++++++to 2.99957
Heightened Def Con from 2.99996 +to 2.99996
Heightened Def Con from 2.99996 +++++++++++++++++++++++++++++++++to 2.99996

Date: Sun Jun 30 10:28:10 2013
Total elapsed time: 22.762 seconds.

tnom = 27
temp = 27
method = modified trap
totiter = 5622006
traniter = 5621999
tranpoints = 595737
accept = 180857
rejected = 478260
matrix size = 7
fillins = 2
solver = Normal
Matrix Compiler1: 464 oCg object code size  0.4/0.3/[0.2]
Matrix Compiler2: off  [0.3]/0.4/0.4


