Circuit: * C:\WORKS\WS\Arduino\Simulations\Yoneda-p102__Transistor_Amplify__v1_Plain__e1_Offset=+2V.asc

Direct Newton iteration for .op point succeeded.

Date: Mon Jun 24 16:22:28 2013
Total elapsed time: 0.056 seconds.

tnom = 27
temp = 27
method = modified trap
totiter = 2094
traniter = 2082
tranpoints = 1042
accept = 1042
rejected = 0
matrix size = 7
fillins = 0
solver = Normal
Matrix Compiler1: 276 ƒoƒCƒg object code size  0.2/0.1/[0.1]
Matrix Compiler2: off  [0.2]/0.2/0.5


