Circuit: * C:\WORKS\WS\Arduino\Simulations\Yoneda-p102__Transistor_Amplify__v1_Plain.asc

Direct Newton iteration for .op point succeeded.

Date: Mon Jun 24 16:23:02 2013
Total elapsed time: 0.051 seconds.

tnom = 27
temp = 27
method = modified trap
totiter = 2648
traniter = 2643
tranpoints = 1086
accept = 1073
rejected = 13
matrix size = 7
fillins = 0
solver = Normal
Matrix Compiler1: 276 ƒoƒCƒg object code size  0.3/0.3/[0.2]
Matrix Compiler2: off  [0.2]/0.3/0.3


