Circuit: * C:\WORKS\WS\Arduino\Simulations\Yoneda-p88__Full-rectifier__with-C=100u.asc

.OP point found by inspection.

Date: Mon Jun 24 12:04:40 2013
Total elapsed time: 0.054 seconds.

tnom = 27
temp = 27
method = modified trap
totiter = 2675
traniter = 2675
tranpoints = 1087
accept = 1081
rejected = 6
matrix size = 4
fillins = 1
solver = Normal
Matrix Compiler1: off  [0.1]/0.2/0.1
Matrix Compiler2: off  [0.0]/0.1/0.1


