Circuit: * C:\WORKS\WS\Arduino\Simulations\Yoneda-p102__Transistor_Amplify__v2_AsText.asc

Direct Newton iteration for .op point succeeded.

Date: Mon Jun 24 16:47:54 2013
Total elapsed time: 0.048 seconds.

tnom = 27
temp = 27
method = modified trap
totiter = 2087
traniter = 2082
tranpoints = 1042
accept = 1042
rejected = 0
matrix size = 7
fillins = 0
solver = Normal
Matrix Compiler1: 276 ƒoƒCƒg object code size  0.3/0.2/[0.2]
Matrix Compiler2: off  [0.2]/0.3/0.4


