Circuit: * C:\WORKS\WS\Arduino\Simulations\Yoneda-p98__Transistor_switching.asc

Limiting rise time of source v1 to 0.001
Limiting fall time of source v1 to 0.001
Direct Newton iteration for .op point succeeded.

Date: Mon Jun 24 15:43:17 2013
Total elapsed time: 0.058 seconds.

tnom = 27
temp = 27
method = modified trap
totiter = 2327
traniter = 2322
tranpoints = 1129
accept = 1108
rejected = 21
matrix size = 6
fillins = 0
solver = Normal
Matrix Compiler1: 182 ƒoƒCƒg object code size  0.1/0.2/[0.1]
Matrix Compiler2: off  [0.0]/0.2/0.3


