Circuit: * C:\WORKS\WS\Arduino\Simulations\Yoneda-p40.asc


Date: Sun Jun 23 14:25:42 2013
Total elapsed time: 0.058 seconds.

tnom = 27
temp = 27
method = trap
totiter = 21
traniter = 0
tranpoints = 0
accept = 0
rejected = 0
matrix size = 2
fillins = 0
solver = Normal
Matrix Compiler1: 36 バイト object code size
Matrix Compiler2: 96 バイト object code size

