Circuit: * C:\WORKS\WS\Arduino\Simulations\Yoneda-p66__Sine-wave_AC-analysis.asc


Date: Mon Jun 24 11:36:31 2013
Total elapsed time: 0.031 seconds.

tnom = 27
temp = 27
method = trap
totiter = 0
traniter = 0
tranpoints = 0
accept = 0
rejected = 0
matrix size = 3
fillins = 0
solver = Normal

