Circuit: * C:\WORKS\WS\Arduino\Simulations\Yoneda-p94__Transistor__v2_Same-battery.asc

Direct Newton iteration for .op point succeeded.

Date: Mon Jun 24 14:36:23 2013
Total elapsed time: 0.064 seconds.

tnom = 27
temp = 27
method = modified trap
totiter = 2092
traniter = 2082
tranpoints = 1042
accept = 1042
rejected = 0
matrix size = 4
fillins = 0
solver = Normal
Matrix Compiler1: 136 ƒoƒCƒg object code size  0.1/0.1/[0.1]
Matrix Compiler2: off  [0.1]/0.2/0.3


