Circuit: * C:\WORKS\WS\Arduino\Simulations\Yoneda-p82.asc


Date: Sun Jun 23 14:54:46 2013
Total elapsed time: 0.026 seconds.

tnom = 27
temp = 27
method = trap
totiter = 97
traniter = 0
tranpoints = 0
accept = 0
rejected = 0
matrix size = 3
fillins = 0
solver = Normal
Matrix Compiler1: off  [0.0]/0.1/0.1
Matrix Compiler2: off  [0.0]/0.2/0.1


