Circuit: * C:\WORKS\WS\Arduino\Simulations\Yoneda\Yoneda-p102_Tr-switching_Re2.asc

Limiting rise time of source v1 to 0.001
Limiting fall time of source v1 to 0.001
Direct Newton iteration for .op point succeeded.

Date: Wed Jun 26 11:21:20 2013
Total elapsed time: 0.114 seconds.

tnom = 27
temp = 27
method = modified trap
totiter = 2507
traniter = 2502
tranpoints = 1169
accept = 1141
rejected = 28
matrix size = 7
fillins = 0
solver = Normal
Matrix Compiler1: 276 ƒoƒCƒg object code size  0.2/0.2/[0.1]
Matrix Compiler2: off  [0.2]/0.2/0.3


