Circuit: * C:\WORKS\WS\Arduino\Simulations\D-34_MISC-1_v-1-0_e-1.asc

Direct Newton iteration for .op point succeeded.

Date: Sun Jun 23 11:24:49 2013
Total elapsed time: 0.048 seconds.

tnom = 27
temp = 27
method = modified trap
totiter = 2095
traniter = 2082
tranpoints = 1042
accept = 1042
rejected = 0
matrix size = 2
fillins = 0
solver = Normal
Matrix Compiler1:       2 opcodes  0.0/[0.0]/0.1
Matrix Compiler2: off  [0.0]/0.1/0.2


