Circuit: * C:\WORKS\WS\Arduino\Simulations\Yoneda-p78.asc

Direct Newton iteration for .op point succeeded.

Date: Sun Jun 23 14:45:27 2013
Total elapsed time: 0.152 seconds.

tnom = 27
temp = 27
method = modified trap
totiter = 2092
traniter = 2082
tranpoints = 1042
accept = 1042
rejected = 0
matrix size = 4
fillins = 0
solver = Normal
Matrix Compiler1: 100 ƒoƒCƒg object code size  0.1/0.2/[0.1]
Matrix Compiler2: off  [0.1]/0.2/0.3


