Circuit: * C:\WORKS\WS\Arduino\Simulations\Yoneda-p73_v-2_2Coisl+Sine-wave.asc

.OP point found by inspection.

Date: Mon Jun 24 12:03:53 2013
Total elapsed time: 0.030 seconds.

tnom = 27
temp = 27
method = modified trap
totiter = 2092
traniter = 2092
tranpoints = 1047
accept = 1046
rejected = 1
matrix size = 2
fillins = 0
solver = Normal
Matrix Compiler1: 36 ƒoƒCƒg object code size  0.1/0.1/[0.0]
Matrix Compiler2: off  [0.1]/0.1/0.1


