Circuit: * C:\WORKS\WS\Arduino\Simulations\Yoneda-p26_t1.asc

Direct Newton iteration for .op point succeeded.

Date: Sun Jun 23 14:01:20 2013
Total elapsed time: 0.051 seconds.

tnom = 27
temp = 27
method = modified trap
totiter = 2085
traniter = 2082
tranpoints = 1042
accept = 1042
rejected = 0
matrix size = 2
fillins = 0
solver = Normal
Matrix Compiler1: 36 ƒoƒCƒg object code size  0.1/0.1/[0.0]
Matrix Compiler2: off  [0.1]/0.1/0.1


