Circuit: * C:\WORKS\WS\Arduino\Simulations\Yoneda-p98__Transistor_switching__v2_Rc=10K.asc

Limiting rise time of source v1 to 0.001
Limiting fall time of source v1 to 0.001
Direct Newton iteration for .op point succeeded.

Date: Mon Jun 24 15:39:11 2013
Total elapsed time: 0.054 seconds.

tnom = 27
temp = 27
method = modified trap
totiter = 2507
traniter = 2502
tranpoints = 1169
accept = 1141
rejected = 28
matrix size = 7
fillins = 0
solver = Normal
Matrix Compiler1: 276 ƒoƒCƒg object code size  0.3/0.2/[0.2]
Matrix Compiler2: off  [0.2]/0.3/0.3


