Circuit: * C:\WORKS\WS\Arduino\Simulations\Yoneda-p85__Rectification-circuit_with-C.asc

.OP point found by inspection.

Date: Sun Jun 23 15:14:49 2013
Total elapsed time: 0.067 seconds.

tnom = 27
temp = 27
method = modified trap
totiter = 2848
traniter = 2848
tranpoints = 1257
accept = 1178
rejected = 79
matrix size = 4
fillins = 0
solver = Normal
Matrix Compiler1: 100 バイト object code size  0.1/0.2/[0.1]
Matrix Compiler2: 248 バイト object code size  0.1/0.1/[0.1]


