Circuit: * C:\WORKS\WS\Arduino\Simulations\Yoneda-p64__Sine-wave_with-C=100u_+R=10.asc

.OP point found by inspection.

Date: Mon Jun 24 11:24:46 2013
Total elapsed time: 0.041 seconds.

tnom = 27
temp = 27
method = modified trap
totiter = 2116
traniter = 2116
tranpoints = 1059
accept = 1055
rejected = 4
matrix size = 3
fillins = 0
solver = Normal
Matrix Compiler1:       3 opcodes  0.1/[0.1]/0.1
Matrix Compiler2: off  [0.1]/0.1/0.1


