Circuit: * C:\WORKS\WS\Arduino\Simulations\Yoneda-p64__Sine-wave_2R.asc

.OP point found by inspection.

Date: Mon Jun 24 11:15:50 2013
Total elapsed time: 0.043 seconds.

tnom = 27
temp = 27
method = modified trap
totiter = 2090
traniter = 2090
tranpoints = 1046
accept = 1046
rejected = 0
matrix size = 3
fillins = 0
solver = Normal
Matrix Compiler1: 50 ƒoƒCƒg object code size  0.1/0.1/[0.0]
Matrix Compiler2: off  [0.1]/0.1/0.1


