Circuit: * C:\WORKS\WS\Arduino\Simulations\Yoneda-p38.asc

Direct Newton iteration for .op point succeeded.

Date: Sun Jun 23 10:52:37 2013
Total elapsed time: 0.034 seconds.

tnom = 27
temp = 27
method = modified trap
totiter = 2085
traniter = 2082
tranpoints = 1042
accept = 1042
rejected = 0
matrix size = 3
fillins = 0
solver = Normal
Matrix Compiler1: 50 ƒoƒCƒg object code size  0.1/0.1/[0.1]
Matrix Compiler2:      15 opcodes  0.1/[0.1]/0.1


